data_NiPyC2_vdw-df2-relax_in_PM
_symmetry_space_group_name_H-M	'P1'
_cell_length_a	6.252808
_cell_length_b	12.523418
_cell_length_c	10.276816
_cell_angle_alpha	90.000000
_cell_angle_beta	91.269007
_cell_angle_gamma	90.000000
_symmetry_Int_Tables_number 1

loop_
_symmetry_equiv_pos_as_xyz
'x,y,z'

loop_
_atom_site_label
_atom_site_type_symbol
_atom_site_fract_x
_atom_site_fract_y
_atom_site_fract_z
C1	C	0.587471	0.959024	0.511495
C2	C	0.795124	0.997886	0.535843
C3	C	0.918981	0.954606	0.638436
C4	C	0.408191	0.518993	0.540096
C5	C	0.484408	0.604339	0.615499
C6	C	0.507342	0.879254	0.592752
C7	C	0.828600	0.874883	0.715758
C8	C	0.167830	0.608210	0.734815
C9	C	0.081752	0.522479	0.663158
C10	C	0.204082	0.478095	0.563918
C11	C	0.879180	0.086387	0.457669
C12	C	0.120123	0.390011	0.483311
C13	C	0.087471	0.040976	0.011495
C14	C	0.295124	0.002114	0.035843
C15	C	0.418981	0.045394	0.138436
C16	C	0.908191	0.481007	0.040096
C17	C	0.984408	0.395661	0.115499
C18	C	0.007342	0.120746	0.092752
C19	C	0.328600	0.125117	0.215758
C20	C	0.667830	0.391790	0.234815
C21	C	0.581752	0.477521	0.163158
C22	C	0.704082	0.521905	0.063918
C23	C	0.379180	0.913613	0.957669
C24	C	0.620123	0.609989	0.983311
H1	H	0.486921	0.990556	0.434720
H2	H	0.078673	0.981198	0.661068
H3	H	0.508392	0.485385	0.467296
H4	H	0.640103	0.638356	0.601661
H5	H	0.348467	0.847495	0.579503
H6	H	0.915369	0.839461	0.795894
H7	H	0.081052	0.645912	0.811163
H8	H	0.925652	0.493117	0.686036
H9	H	-0.013079	0.009444	0.934720
H10	H	0.578673	0.018802	0.161068
H11	H	1.008392	0.514615	0.967296
H12	H	0.140103	0.361644	0.101661
H13	H	0.848467	0.152505	0.079503
H14	H	0.415369	0.160539	0.295894
H15	H	0.581052	0.354088	0.311163
H16	H	0.425652	0.506883	0.186036
N1	N	0.625756	0.840800	0.694217
N2	N	0.365151	0.646850	0.711057
N3	N	0.125756	0.159200	0.194217
N4	N	0.865151	0.353150	0.211057
Ni1	Ni	0.493238	0.752909	0.835506
Ni2	Ni	0.993238	0.247091	0.335506
O1	O	0.233642	0.347310	0.392588
O2	O	0.761807	0.134966	0.370266
O3	O	0.931719	0.351757	0.495362
O4	O	0.069372	0.122847	0.473342
O5	O	0.733642	0.652690	0.892588
O6	O	0.261807	0.865034	0.870266
O7	O	0.431719	0.648243	0.995362
O8	O	0.569372	0.877153	0.973342
