#======================================================================

# CRYSTAL DATA

#----------------------------------------------------------------------

data_VESTA_phase_1


_chemical_name_common                  'XCrySDen XSF file'
_cell_length_a                         12.50560
_cell_length_b                         25.04680
_cell_length_c                         20.55360
_cell_angle_alpha                      90
_cell_angle_beta                       91.26900
_cell_angle_gamma                      90
_space_group_name_H-M_alt              'P 1'
_space_group_IT_number                 1

loop_
_space_group_symop_operation_xyz
   'x, y, z'
   'x, y, z+1/2'
   'x, y+1/2, z'
   'x, y+1/2, z+1/2'
   'x+1/2, y, z'
   'x+1/2, y, z+1/2'
   'x+1/2, y+1/2, z'
   'x+1/2, y+1/2, z+1/2'

loop_
   _atom_site_label
   _atom_site_occupancy
   _atom_site_fract_x
   _atom_site_fract_y
   _atom_site_fract_z
   _atom_site_adp_type
   _atom_site_B_iso_or_equiv
   _atom_site_type_symbol
   Ni1        1.0     0.247002      0.375743      0.418163     Biso  1.000000 Ni
   Ni2        1.0     0.499972      0.123999      0.169589     Biso  1.000000 Ni
   O1         1.0     0.122778      0.173845      0.191436     Biso  1.000000 O
   O2         1.0     0.371208      0.325489      0.440646     Biso  1.000000 O
   O3         1.0     0.377631      0.073753      0.188589     Biso  1.000000 O
   O4         1.0     0.125098      0.426176      0.438130     Biso  1.000000 O
   O5         1.0     0.473069      0.178080      0.241497     Biso  1.000000 O
   O6         1.0     0.221137      0.320707      0.489938     Biso  1.000000 O
   O7         1.0     0.028840      0.067579      0.240539     Biso  1.000000 O
   O8         1.0     0.276686      0.431379      0.489700     Biso  1.000000 O
   N1         1.0     0.308437      0.425626      0.352414     Biso  1.000000 N
   N2         1.0     0.060729      0.074428      0.103026     Biso  1.000000 N
   N3         1.0     0.186542      0.325155      0.352919     Biso  1.000000 N
   N4         1.0     0.438810      0.175464      0.104020     Biso  1.000000 N
   C1         1.0     0.288213      0.485025      0.260992     Biso  1.000000 C
   C2         1.0     0.038379      0.015553      0.011154     Biso  1.000000 C
   H1         1.0     0.237125      0.499788      0.221556     Biso  1.000000 H
   H2         1.0     0.986538      0.001346      0.471750     Biso  1.000000 H
   C3         1.0     0.390635      0.505885      0.273246     Biso  1.000000 C
   C4         1.0     0.140244      0.993872      0.023073     Biso  1.000000 C
   C5         1.0     0.451915      0.485101      0.325186     Biso  1.000000 C
   C6         1.0     0.202521      0.014177      0.074947     Biso  1.000000 C
   H3         1.0     0.032063      0.499402      0.336760     Biso  1.000000 H
   H4         1.0     0.282340      0.999332      0.086301     Biso  1.000000 H
   C7         1.0     0.208182      0.264852      0.263192     Biso  1.000000 C
   C8         1.0     0.458546      0.235704      0.013952     Biso  1.000000 C
   H5         1.0     0.258700      0.250448      0.224641     Biso  1.000000 H
   H6         1.0     0.508641      0.250199      0.475274     Biso  1.000000 H
   C9         1.0     0.245137      0.306666      0.303218     Biso  1.000000 C
   C10        1.0     0.496819      0.194339      0.054309     Biso  1.000000 C
   H7         1.0     0.322641      0.325253      0.296317     Biso  1.000000 H
   H8         1.0     0.074969      0.176426      0.047514     Biso  1.000000 H
   C11        1.0     0.249476      0.444603      0.301601     Biso  1.000000 C
   C12        1.0     0.001069      0.056116      0.052123     Biso  1.000000 C
   H9         1.0     0.170154      0.427561      0.294280     Biso  1.000000 H
   H10        1.0     0.422323      0.073866      0.044943     Biso  1.000000 H
   C13        1.0     0.407977      0.444692      0.363776     Biso  1.000000 C
   C14        1.0     0.159935      0.054773      0.113906     Biso  1.000000 C
   H11        1.0     0.453370      0.427586      0.404381     Biso  1.000000 H
   H12        1.0     0.206240      0.071552      0.154399     Biso  1.000000 H
   C15        1.0     0.088862      0.304491      0.363676     Biso  1.000000 C
   C16        1.0     0.340890      0.195817      0.114697     Biso  1.000000 C
   H13        1.0     0.043729      0.321472      0.403304     Biso  1.000000 H
   H14        1.0     0.296378      0.178763      0.154526     Biso  1.000000 H
   C17        1.0     0.046925      0.262540      0.325656     Biso  1.000000 C
   C18        1.0     0.297658      0.237356      0.076377     Biso  1.000000 C
   H15        1.0     0.468672      0.246615      0.336751     Biso  1.000000 H
   H16        1.0     0.218953      0.252600      0.087632     Biso  1.000000 H
   C19        1.0     0.108164      0.242135      0.275058     Biso  1.000000 C
   C20        1.0     0.357832      0.257828      0.025319     Biso  1.000000 C
   C21        1.0     0.433309      0.049660      0.233311     Biso  1.000000 C
   C22        1.0     0.181517      0.449860      0.482836     Biso  1.000000 C
   C23        1.0     0.067378      0.197237      0.235338     Biso  1.000000 C
   C24        1.0     0.316043      0.302086      0.484553     Biso  1.000000 C
