units           real
atom_style      full
boundary        p p p

pair_style      lj/cut 5.000
bond_style      harmonic
angle_style     hybrid fourier cosine/periodic
dihedral_style  harmonic
improper_style  fourier

dielectric      1.0
special_bonds   lj/coul 0.0 0.0 1.0
pair_modify     tail yes mix arithmetic
box tilt        large
read_data       data.NiPyC2_relax_sc211_meta_functionalized_S-CH3
  triclinic box = (0 0 0) to (12.5056 12.5234 10.2743) with tilt (0 -0.227594 0)
  reading atoms ...
  140 atoms
  scanning bonds ...
  scanning angles ...
  scanning dihedrals ...
  scanning impropers ...
  reading bonds ...
  160 bonds
  reading angles ...
  300 angles
  reading dihedrals ...
  296 dihedrals
  reading impropers ...
  168 impropers

#### Atom Groupings ####
group           fram     id   1:140
140 atoms in group fram
#### END Atom Groupings ####

dump            NiPyC2_relax_sc211_meta_functionalized_S-CH3_xyzmov all xyz 20000 NiPyC2_relax_sc211_meta_functionalized_S-CH3_mov.xyz
dump_modify     NiPyC2_relax_sc211_meta_functionalized_S-CH3_xyzmov element Ni O N C H S C
min_style       cg
print           "MinStep,CellMinStep,AtomMinStep,FinalStep,Energy,EDiff" file NiPyC2_relax_sc211_meta_functionalized_S-CH3.min.csv screen no
variable        min_eval   equal 1.00e-06
variable        prev_E     equal 50000.00
variable        iter       loop 100000
label           loop_min
min_style       cg
fix             1 all box/relax aniso 0.0 vmax 0.01
minimize        1.0e-15 1.0e-15 10000 100000
  update every 1 steps, delay 0 steps, check yes
Step Temp E_pair E_mol TotEng Press Volume
0            0 1.5556995e+10     2551.429 1.5556998e+10 2.6517553e+12    1609.0819
Loop time of 0.135653 on 1 procs for 460 steps with 140 atoms

Minimization stats:
  Stopping criterion = linesearch alpha is zero
  Energy initial, next-to-last, final =
  Force two-norm initial, final = 3.86112e+11 93.4971
  Force max component initial, final = 1.52997e+11 82.0369
  Final line search alpha, max atom move = 1.12352e-12 9.21698e-11
  Iterations, force evaluations = 460 729

unfix           1
min_style       fire
variable        tempstp    equal $(step)
variable        tempstp    equal 460
variable        CellMinStep equal 460
minimize        1.0e-15 1.0e-15 10000 100000
  Parameters for fire:
    dmax delaystep dtgrow dtshrink alpha0 alphashrink tmax tmin    integrator halfstepback
     0.1        20    1.1      0.5   0.25        0.99   10 0.02 eulerimplicit          yes
Step Temp E_pair E_mol TotEng Press
460            0    93.291613    1556.2019    1649.4935   -407.36198
Loop time of 1.48498 on 1 procs for 10000 steps with 140 atoms

Minimization stats:
  Stopping criterion = max iterations
  Energy initial, next-to-last, final =
  Force two-norm initial, final = 34.3366 0.0160789
  Force max component initial, final = 7.42445 0.00360113
  Final line search alpha, max atom move = 0 0
  Iterations, force evaluations = 10000 10000

variable        AtomMinStep equal 460
variable        temppe     equal $(pe)
variable        temppe     equal 1575.7868567958862513
variable        min_E      equal abs(50000-1575.78685679589)
variable        prev_E     equal 1575.78685679589
next            iter
jump            SELF loop_min
min_style       cg
fix             1 all box/relax aniso 0.0 vmax 0.01
minimize        1.0e-15 1.0e-15 10000 100000
Step Temp E_pair E_mol TotEng Press Volume
10460 3.980454e-05    42.798389    1532.9885    1575.7869     -16576.5    1615.9576
Loop time of 0.0154527 on 1 procs for 14 steps with 140 atoms

Minimization stats:
  Stopping criterion = linesearch alpha is zero
  Energy initial, next-to-last, final =
  Force two-norm initial, final = 693.944 28.2025
  Force max component initial, final = 477.038 5.80019
  Final line search alpha, max atom move = 1.00918e-11 5.85343e-11
  Iterations, force evaluations = 14 81

unfix           1
min_style       fire
variable        tempstp    equal $(step)
variable        tempstp    equal 10474
variable        CellMinStep equal 10474
minimize        1.0e-15 1.0e-15 10000 100000
  Parameters for fire:
    dmax delaystep dtgrow dtshrink alpha0 alphashrink tmax tmin    integrator halfstepback
     0.1        20    1.1      0.5   0.25        0.99   10 0.02 eulerimplicit          yes
Step Temp E_pair E_mol TotEng Press
10474            0    62.183637    1508.3245    1570.5082    6.0619471
Loop time of 1.35115 on 1 procs for 8963 steps with 140 atoms

Minimization stats:
  Stopping criterion = energy tolerance
  Energy initial, next-to-last, final =
  Force two-norm initial, final = 27.2506 3.17346e-05
  Force max component initial, final = 5.73077 1.26052e-05
  Final line search alpha, max atom move = 0 0
  Iterations, force evaluations = 8963 8963

variable        AtomMinStep equal 10474
variable        temppe     equal $(pe)
variable        temppe     equal 1566.3032589235049272
variable        min_E      equal abs(1575.78685679589-1566.3032589235)
variable        prev_E     equal 1566.3032589235
next            iter
jump            SELF loop_min
min_style       cg
fix             1 all box/relax aniso 0.0 vmax 0.01
minimize        1.0e-15 1.0e-15 10000 100000
Step Temp E_pair E_mol TotEng Press Volume
19437 9.1657545e-11    44.247919    1522.0553    1566.3033   -9024.9984    1581.6089
Loop time of 0.0113683 on 1 procs for 3 steps with 140 atoms

Minimization stats:
  Stopping criterion = linesearch alpha is zero
  Energy initial, next-to-last, final =
  Force two-norm initial, final = 431.737 38.9116
  Force max component initial, final = 384.419 23.6365
  Final line search alpha, max atom move = 5.22715e-12 1.23552e-10
  Iterations, force evaluations = 3 59

unfix           1
min_style       fire
variable        tempstp    equal $(step)
variable        tempstp    equal 19440
variable        CellMinStep equal 19440
minimize        1.0e-15 1.0e-15 10000 100000
  Parameters for fire:
    dmax delaystep dtgrow dtshrink alpha0 alphashrink tmax tmin    integrator halfstepback
     0.1        20    1.1      0.5   0.25        0.99   10 0.02 eulerimplicit          yes
Step Temp E_pair E_mol TotEng Press
19440            0    49.628442    1515.7442    1565.3726   -325.08874
Loop time of 0.502059 on 1 procs for 3307 steps with 140 atoms

Minimization stats:
  Stopping criterion = energy tolerance
  Energy initial, next-to-last, final =
  Force two-norm initial, final = 30.8221 3.50612e-05
  Force max component initial, final = 5.86724 1.42902e-05
  Final line search alpha, max atom move = 0 0
  Iterations, force evaluations = 3307 3307

variable        AtomMinStep equal 19440
variable        temppe     equal $(pe)
variable        temppe     equal 1564.7535277461645364
variable        min_E      equal abs(1566.3032589235-1564.75352774616)
variable        prev_E     equal 1564.75352774616
next            iter
jump            SELF loop_min
min_style       cg
fix             1 all box/relax aniso 0.0 vmax 0.01
minimize        1.0e-15 1.0e-15 10000 100000
Step Temp E_pair E_mol TotEng Press Volume
22747 1.1478322e-10    46.525661    1518.2279    1564.7535   -6353.4495    1572.7425
Loop time of 0.0145518 on 1 procs for 11 steps with 140 atoms

Minimization stats:
  Stopping criterion = linesearch alpha is zero
  Energy initial, next-to-last, final =
  Force two-norm initial, final = 353.479 47.3222
  Force max component initial, final = 333.493 29.5213
  Final line search alpha, max atom move = 2.91131e-12 8.59458e-11
  Iterations, force evaluations = 11 75

unfix           1
min_style       fire
variable        tempstp    equal $(step)
variable        tempstp    equal 22758
variable        CellMinStep equal 22758
minimize        1.0e-15 1.0e-15 10000 100000
  Parameters for fire:
    dmax delaystep dtgrow dtshrink alpha0 alphashrink tmax tmin    integrator halfstepback
     0.1        20    1.1      0.5   0.25        0.99   10 0.02 eulerimplicit          yes
Step Temp E_pair E_mol TotEng Press
22758            0    54.916467    1508.3781    1563.2945    539.69739
Loop time of 0.425773 on 1 procs for 2799 steps with 140 atoms

Minimization stats:
  Stopping criterion = energy tolerance
  Energy initial, next-to-last, final =
  Force two-norm initial, final = 34.6478 3.4459e-05
  Force max component initial, final = 4.86149 1.2212e-05
  Final line search alpha, max atom move = 0 0
  Iterations, force evaluations = 2799 2799

variable        AtomMinStep equal 22758
variable        temppe     equal $(pe)
variable        temppe     equal 1562.277580816402633
variable        min_E      equal abs(1564.75352774616-1562.2775808164)
variable        prev_E     equal 1562.2775808164
next            iter
jump            SELF loop_min
min_style       cg
fix             1 all box/relax aniso 0.0 vmax 0.01
minimize        1.0e-15 1.0e-15 10000 100000
Step Temp E_pair E_mol TotEng Press Volume
25557 1.3073995e-10    49.508496    1512.7691    1562.2776   -2799.3161    1557.2699
Loop time of 0.0125932 on 1 procs for 7 steps with 140 atoms

Minimization stats:
  Stopping criterion = linesearch alpha is zero
  Energy initial, next-to-last, final =
  Force two-norm initial, final = 244.975 25.3817
  Force max component initial, final = 234.235 6.92982
  Final line search alpha, max atom move = 1.60805e-11 1.11435e-10
  Iterations, force evaluations = 7 65

unfix           1
min_style       fire
variable        tempstp    equal $(step)
variable        tempstp    equal 25564
variable        CellMinStep equal 25564
minimize        1.0e-15 1.0e-15 10000 100000
  Parameters for fire:
    dmax delaystep dtgrow dtshrink alpha0 alphashrink tmax tmin    integrator halfstepback
     0.1        20    1.1      0.5   0.25        0.99   10 0.02 eulerimplicit          yes
Step Temp E_pair E_mol TotEng Press
25564            0    51.999397     1509.555    1561.5544   -106.39701
Loop time of 0.399302 on 1 procs for 2624 steps with 140 atoms

Minimization stats:
  Stopping criterion = energy tolerance
  Energy initial, next-to-last, final =
  Force two-norm initial, final = 23.4916 4.18247e-05
  Force max component initial, final = 3.71848 1.96926e-05
  Final line search alpha, max atom move = 0 0
  Iterations, force evaluations = 2624 2624

variable        AtomMinStep equal 25564
variable        temppe     equal $(pe)
variable        temppe     equal 1560.9260562822566953
variable        min_E      equal abs(1562.2775808164-1560.92605628226)
variable        prev_E     equal 1560.92605628226
next            iter
jump            SELF loop_min
min_style       cg
fix             1 all box/relax aniso 0.0 vmax 0.01
minimize        1.0e-15 1.0e-15 10000 100000
Step Temp E_pair E_mol TotEng Press Volume
28188 2.3092661e-10    49.431997    1511.4941    1560.9261   -2256.7734    1551.9193
Loop time of 0.0143999 on 1 procs for 11 steps with 140 atoms

Minimization stats:
  Stopping criterion = linesearch alpha is zero
  Energy initial, next-to-last, final =
  Force two-norm initial, final = 204.8 29.7872
  Force max component initial, final = 196.581 12.9113
  Final line search alpha, max atom move = 1.04106e-11 1.34414e-10
  Iterations, force evaluations = 11 73

unfix           1
min_style       fire
variable        tempstp    equal $(step)
variable        tempstp    equal 28199
variable        CellMinStep equal 28199
minimize        1.0e-15 1.0e-15 10000 100000
  Parameters for fire:
    dmax delaystep dtgrow dtshrink alpha0 alphashrink tmax tmin    integrator halfstepback
     0.1        20    1.1      0.5   0.25        0.99   10 0.02 eulerimplicit          yes
Step Temp E_pair E_mol TotEng Press
28199            0    51.312819    1509.0232     1560.336   -478.09293
Loop time of 0.421021 on 1 procs for 2723 steps with 140 atoms

Minimization stats:
  Stopping criterion = energy tolerance
  Energy initial, next-to-last, final =
  Force two-norm initial, final = 23.0398 3.14889e-05
  Force max component initial, final = 4.56669 1.29312e-05
  Final line search alpha, max atom move = 0 0
  Iterations, force evaluations = 2723 2723

variable        AtomMinStep equal 28199
variable        temppe     equal $(pe)
variable        temppe     equal 1560.0758696737148057
variable        min_E      equal abs(1560.92605628226-1560.07586967371)
variable        prev_E     equal 1560.07586967371
next            iter
jump            SELF loop_min
min_style       cg
fix             1 all box/relax aniso 0.0 vmax 0.01
minimize        1.0e-15 1.0e-15 10000 100000
Step Temp E_pair E_mol TotEng Press Volume
30922 9.7018671e-11    49.340903     1510.735    1560.0759   -2071.6588    1547.3356
Loop time of 0.0125991 on 1 procs for 6 steps with 140 atoms

Minimization stats:
  Stopping criterion = linesearch alpha is zero
  Energy initial, next-to-last, final =
  Force two-norm initial, final = 163.298 20.8792
  Force max component initial, final = 159.741 10.1711
  Final line search alpha, max atom move = 2.10586e-11 2.14189e-10
  Iterations, force evaluations = 6 65

unfix           1
min_style       fire
variable        tempstp    equal $(step)
variable        tempstp    equal 30928
variable        CellMinStep equal 30928
minimize        1.0e-15 1.0e-15 10000 100000
  Parameters for fire:
    dmax delaystep dtgrow dtshrink alpha0 alphashrink tmax tmin    integrator halfstepback
     0.1        20    1.1      0.5   0.25        0.99   10 0.02 eulerimplicit          yes
Step Temp E_pair E_mol TotEng Press
30928            0    50.897535    1508.8649    1559.7625    212.81065
Loop time of 0.387631 on 1 procs for 2495 steps with 140 atoms

Minimization stats:
  Stopping criterion = energy tolerance
  Energy initial, next-to-last, final =
  Force two-norm initial, final = 16.642 3.10472e-05
  Force max component initial, final = 2.75915 1.18679e-05
  Final line search alpha, max atom move = 0 0
  Iterations, force evaluations = 2495 2495

variable        AtomMinStep equal 30928
variable        temppe     equal $(pe)
variable        temppe     equal 1559.7142986887861298
variable        min_E      equal abs(1560.07586967371-1559.71429868879)
variable        prev_E     equal 1559.71429868879
next            iter
jump            SELF loop_min
min_style       cg
fix             1 all box/relax aniso 0.0 vmax 0.01
minimize        1.0e-15 1.0e-15 10000 100000
Step Temp E_pair E_mol TotEng Press Volume
33423 1.0024558e-10    49.639798    1510.0745    1559.7143   -1646.0326    1544.2092
Loop time of 0.0166463 on 1 procs for 3 steps with 140 atoms

Minimization stats:
  Stopping criterion = linesearch alpha is zero
  Energy initial, next-to-last, final =
  Force two-norm initial, final = 140.456 15.4306
  Force max component initial, final = 137.245 9.95681
  Final line search alpha, max atom move = 2.80114e-11 2.78904e-10
  Iterations, force evaluations = 3 57

unfix           1
min_style       fire
variable        tempstp    equal $(step)
variable        tempstp    equal 33426
variable        CellMinStep equal 33426
minimize        1.0e-15 1.0e-15 10000 100000
  Parameters for fire:
    dmax delaystep dtgrow dtshrink alpha0 alphashrink tmax tmin    integrator halfstepback
     0.1        20    1.1      0.5   0.25        0.99   10 0.02 eulerimplicit          yes
Step Temp E_pair E_mol TotEng Press
33426            0    50.137647    1509.4695    1559.6072    -215.6787
Loop time of 0.321209 on 1 procs for 2076 steps with 140 atoms

Minimization stats:
  Stopping criterion = energy tolerance
  Energy initial, next-to-last, final =
  Force two-norm initial, final = 11.3243 3.24709e-05
  Force max component initial, final = 2.09602 1.17968e-05
  Final line search alpha, max atom move = 0 0
  Iterations, force evaluations = 2076 2076

variable        AtomMinStep equal 33426
variable        temppe     equal $(pe)
variable        temppe     equal 1559.5359961224644394
variable        min_E      equal abs(1559.71429868879-1559.53599612246)
variable        prev_E     equal 1559.53599612246
next            iter
jump            SELF loop_min
min_style       cg
fix             1 all box/relax aniso 0.0 vmax 0.01
minimize        1.0e-15 1.0e-15 10000 100000
Step Temp E_pair E_mol TotEng Press Volume
35502 1.0443059e-10    49.549262    1509.9867     1559.536   -1665.1899    1543.1806
Loop time of 0.0109141 on 1 procs for 3 steps with 140 atoms

Minimization stats:
  Stopping criterion = linesearch alpha is zero
  Energy initial, next-to-last, final =
  Force two-norm initial, final = 130.171 14.4103
  Force max component initial, final = 128.396 9.47889
  Final line search alpha, max atom move = 5.84273e-11 5.53826e-10
  Iterations, force evaluations = 3 55

unfix           1
min_style       fire
variable        tempstp    equal $(step)
variable        tempstp    equal 35505
variable        CellMinStep equal 35505
minimize        1.0e-15 1.0e-15 10000 100000
  Parameters for fire:
    dmax delaystep dtgrow dtshrink alpha0 alphashrink tmax tmin    integrator halfstepback
     0.1        20    1.1      0.5   0.25        0.99   10 0.02 eulerimplicit          yes
Step Temp E_pair E_mol TotEng Press
35505            0    50.149637    1509.3311    1559.4808   -196.41911
Loop time of 0.351574 on 1 procs for 2268 steps with 140 atoms

Minimization stats:
  Stopping criterion = energy tolerance
  Energy initial, next-to-last, final =
  Force two-norm initial, final = 10.5201 3.02634e-05
  Force max component initial, final = 1.95244 1.27527e-05
  Final line search alpha, max atom move = 0 0
  Iterations, force evaluations = 2268 2268

variable        AtomMinStep equal 35505
variable        temppe     equal $(pe)
variable        temppe     equal 1559.3951239765920036
variable        min_E      equal abs(1559.53599612246-1559.39512397659)
variable        prev_E     equal 1559.39512397659
next            iter
jump            SELF loop_min
min_style       cg
fix             1 all box/relax aniso 0.0 vmax 0.01
minimize        1.0e-15 1.0e-15 10000 100000
Step Temp E_pair E_mol TotEng Press Volume
37773 1.2448975e-10    49.537438    1509.8577    1559.3951    -1621.231    1542.1015
Loop time of 0.011324 on 1 procs for 5 steps with 140 atoms

Minimization stats:
  Stopping criterion = linesearch alpha is zero
  Energy initial, next-to-last, final =
  Force two-norm initial, final = 120.432 27.8568
  Force max component initial, final = 119.406 24.3703
  Final line search alpha, max atom move = 1.05811e-11 2.57865e-10
  Iterations, force evaluations = 5 59

unfix           1
min_style       fire
variable        tempstp    equal $(step)
variable        tempstp    equal 37778
variable        CellMinStep equal 37778
minimize        1.0e-15 1.0e-15 10000 100000
  Parameters for fire:
    dmax delaystep dtgrow dtshrink alpha0 alphashrink tmax tmin    integrator halfstepback
     0.1        20    1.1      0.5   0.25        0.99   10 0.02 eulerimplicit          yes
Step Temp E_pair E_mol TotEng Press
37778            0    50.597388    1508.7022    1559.2996   -278.09748
Loop time of 0.379615 on 1 procs for 2438 steps with 140 atoms

Minimization stats:
  Stopping criterion = energy tolerance
  Energy initial, next-to-last, final =
  Force two-norm initial, final = 11.9038 0.000111718
  Force max component initial, final = 1.93044 2.7761e-05
  Final line search alpha, max atom move = 0 0
  Iterations, force evaluations = 2438 2438

variable        AtomMinStep equal 37778
variable        temppe     equal $(pe)
variable        temppe     equal 1559.1617400295381231
variable        min_E      equal abs(1559.39512397659-1559.16174002954)
variable        prev_E     equal 1559.16174002954
next            iter
jump            SELF loop_min
min_style       cg
fix             1 all box/relax aniso 0.0 vmax 0.01
minimize        1.0e-15 1.0e-15 10000 100000
Step Temp E_pair E_mol TotEng Press Volume
40216 1.0421177e-10    49.672608    1509.4891    1559.1617   -1343.2038    1540.2059
Loop time of 0.010979 on 1 procs for 3 steps with 140 atoms

Minimization stats:
  Stopping criterion = linesearch alpha is zero
  Energy initial, next-to-last, final =
  Force two-norm initial, final = 106.504 12.3121
  Force max component initial, final = 105.393 8.20153
  Final line search alpha, max atom move = 5.92593e-11 4.86017e-10
  Iterations, force evaluations = 3 55

unfix           1
min_style       fire
variable        tempstp    equal $(step)
variable        tempstp    equal 40219
variable        CellMinStep equal 40219
minimize        1.0e-15 1.0e-15 10000 100000
  Parameters for fire:
    dmax delaystep dtgrow dtshrink alpha0 alphashrink tmax tmin    integrator halfstepback
     0.1        20    1.1      0.5   0.25        0.99   10 0.02 eulerimplicit          yes
Step Temp E_pair E_mol TotEng Press
40219            0    49.983627    1508.9976    1558.9812   -181.34029
Loop time of 0.385478 on 1 procs for 2488 steps with 140 atoms

Minimization stats:
  Stopping criterion = energy tolerance
  Energy initial, next-to-last, final =
  Force two-norm initial, final = 8.73109 2.86396e-05
  Force max component initial, final = 1.60214 9.09098e-06
  Final line search alpha, max atom move = 0 0
  Iterations, force evaluations = 2488 2488

variable        AtomMinStep equal 40219
variable        temppe     equal $(pe)
variable        temppe     equal 1558.9323750766964167
variable        min_E      equal abs(1559.16174002954-1558.9323750767)
variable        prev_E     equal 1558.9323750767
next            iter
jump            SELF loop_min
min_style       cg
fix             1 all box/relax aniso 0.0 vmax 0.01
minimize        1.0e-15 1.0e-15 10000 100000
Step Temp E_pair E_mol TotEng Press Volume
42707 1.0065522e-10     49.49212    1509.4403    1558.9324   -1356.7074    1539.3827
Loop time of 0.0110762 on 1 procs for 3 steps with 140 atoms

Minimization stats:
  Stopping criterion = linesearch alpha is zero
  Energy initial, next-to-last, final =
  Force two-norm initial, final = 99.7613 11.4958
  Force max component initial, final = 99.293 7.76152
  Final line search alpha, max atom move = 6.36406e-11 4.93948e-10
  Iterations, force evaluations = 3 55

unfix           1
min_style       fire
variable        tempstp    equal $(step)
variable        tempstp    equal 42710
variable        CellMinStep equal 42710
minimize        1.0e-15 1.0e-15 10000 100000
  Parameters for fire:
    dmax delaystep dtgrow dtshrink alpha0 alphashrink tmax tmin    integrator halfstepback
     0.1        20    1.1      0.5   0.25        0.99   10 0.02 eulerimplicit          yes
Step Temp E_pair E_mol TotEng Press
42710            0    49.946451    1508.9097    1558.8562   -161.25474
Loop time of 0.331416 on 1 procs for 2129 steps with 140 atoms

Minimization stats:
  Stopping criterion = energy tolerance
  Energy initial, next-to-last, final =
  Force two-norm initial, final = 8.1848 3.33574e-05
  Force max component initial, final = 1.50268 1.30602e-05
  Final line search alpha, max atom move = 0 0
  Iterations, force evaluations = 2129 2129

variable        AtomMinStep equal 42710
variable        temppe     equal $(pe)
variable        temppe     equal 1558.7914058695564563
variable        min_E      equal abs(1558.9323750767-1558.79140586956)
variable        prev_E     equal 1558.79140586956
next            iter
jump            SELF loop_min
min_style       cg
fix             1 all box/relax aniso 0.0 vmax 0.01
minimize        1.0e-15 1.0e-15 10000 100000
Step Temp E_pair E_mol TotEng Press Volume
44839 9.7707333e-11    49.458037    1509.3334    1558.7914   -1298.5935     1538.521
Loop time of 0.0109829 on 1 procs for 1 steps with 140 atoms

Minimization stats:
  Stopping criterion = linesearch alpha is zero
  Energy initial, next-to-last, final =
  Force two-norm initial, final = 92.4843 92.4843
  Force max component initial, final = 92.2809 92.2809
  Final line search alpha, max atom move = 8.07381e-13 7.45058e-11
  Iterations, force evaluations = 1 55

unfix           1
min_style       fire
variable        tempstp    equal $(step)
variable        tempstp    equal 44840
variable        CellMinStep equal 44840
minimize        1.0e-15 1.0e-15 10000 100000
  Parameters for fire:
    dmax delaystep dtgrow dtshrink alpha0 alphashrink tmax tmin    integrator halfstepback
     0.1        20    1.1      0.5   0.25        0.99   10 0.02 eulerimplicit          yes
Step Temp E_pair E_mol TotEng Press
44840            0    49.458037    1509.3334    1558.7914   -1298.5935
Loop time of 0.00895617 on 1 procs for 56 steps with 140 atoms

Minimization stats:
  Stopping criterion = energy tolerance
  Energy initial, next-to-last, final =
  Force two-norm initial, final = 3.33574e-05 2.94434e-05
  Force max component initial, final = 1.30602e-05 1.14586e-05
  Final line search alpha, max atom move = 0 0
  Iterations, force evaluations = 56 56

variable        AtomMinStep equal 44840
variable        temppe     equal $(pe)
variable        temppe     equal 1558.7914058694352661
variable        min_E      equal abs(1558.79140586956-1558.79140586944)
jump SELF break_min
undump          NiPyC2_relax_sc211_meta_functionalized_S-CH3_xyzmov

# Dump last snapshot for restart
variable curr_lx equal lx
variable curr_ly equal ly
variable curr_lz equal lz
change_box all x final 0 13.4512845927552 y final 0 10.392058763611 z final 0 11.0062167121648
  triclinic box = (0 1.06567 -0.365969) to (13.4513 11.4577 10.6402) with tilt (0 -0.243808 0)
  triclinic box = (0 0 -0.365969) to (13.4513 10.3921 10.6402) with tilt (0 -0.243808 0)
  triclinic box = (0 0 0) to (13.4513 10.3921 11.0062) with tilt (0 -0.243808 0)

reset_timestep 0
dump            NiPyC2_relax_sc211_meta_functionalized_S-CH3_restart all atom 1 NiPyC2_relax_sc211_meta_functionalized_S-CH3_restart.lammpstrj
dump_modify     NiPyC2_relax_sc211_meta_functionalized_S-CH3_restart scale no sort id
run 0
Step Temp E_pair E_mol TotEng Press
0 9.3755077e-11    49.458035    1509.3334    1558.7914    -1298.596
Loop time of 1.026e-06 on 1 procs for 0 steps with 140 atoms

undump          NiPyC2_relax_sc211_meta_functionalized_S-CH3_restart
