data_NiPyC2_comp2_Ni_only_PM
_symmetry_space_group_name_H-M	'P1'
_cell_length_a	25.011200
_cell_length_b	50.093600
_cell_length_c	41.107200
_cell_angle_alpha	90.000000
_cell_angle_beta	91.269000
_cell_angle_gamma	90.000000
_symmetry_Int_Tables_number 1

loop_
_symmetry_equiv_pos_as_xyz
'x,y,z'

loop_
_atom_site_label
_atom_site_type_symbol
_atom_site_fract_x
_atom_site_fract_y
_atom_site_fract_z
Ni1	Ni	0.248700	0.061510	0.084858
Ni2	Ni	0.123700	0.188490	0.459858
Ni3	Ni	0.248700	0.061510	0.584858
Ni4	Ni	0.123700	0.188490	0.959858
Ni5	Ni	0.123700	0.438490	0.209858
Ni6	Ni	0.248700	0.311510	0.334858
Ni7	Ni	0.123700	0.438490	0.709858
Ni8	Ni	0.248700	0.311510	0.834858
Ni9	Ni	0.248700	0.561510	0.084858
Ni10	Ni	0.123700	0.688490	0.459858
Ni11	Ni	0.248700	0.561510	0.584858
Ni12	Ni	0.123700	0.688490	0.959858
Ni13	Ni	0.123700	0.938490	0.209858
Ni14	Ni	0.248700	0.811510	0.334858
Ni15	Ni	0.123700	0.938490	0.709858
Ni16	Ni	0.248700	0.811510	0.834858
Ni17	Ni	0.373700	0.188490	0.209858
Ni18	Ni	0.498700	0.061510	0.334858
Ni19	Ni	0.373700	0.188490	0.709858
Ni20	Ni	0.498700	0.061510	0.834858
Ni21	Ni	0.498700	0.311510	0.084858
Ni22	Ni	0.373700	0.438490	0.459858
Ni23	Ni	0.498700	0.311510	0.584858
Ni24	Ni	0.373700	0.438490	0.959858
Ni25	Ni	0.373700	0.688490	0.209858
Ni26	Ni	0.498700	0.561510	0.334858
Ni27	Ni	0.373700	0.688490	0.709858
Ni28	Ni	0.498700	0.561510	0.834858
Ni29	Ni	0.498700	0.811510	0.084858
Ni30	Ni	0.373700	0.938490	0.459858
Ni31	Ni	0.498700	0.811510	0.584858
Ni32	Ni	0.373700	0.938490	0.959858
Ni33	Ni	0.748700	0.061510	0.084858
Ni34	Ni	0.623700	0.188490	0.459858
Ni35	Ni	0.748700	0.061510	0.584858
Ni36	Ni	0.623700	0.188490	0.959858
Ni37	Ni	0.623700	0.438490	0.209858
Ni38	Ni	0.748700	0.311510	0.334858
Ni39	Ni	0.623700	0.438490	0.709858
Ni40	Ni	0.748700	0.311510	0.834858
Ni41	Ni	0.748700	0.561510	0.084858
Ni42	Ni	0.623700	0.688490	0.459858
Ni43	Ni	0.748700	0.561510	0.584858
Ni44	Ni	0.623700	0.688490	0.959858
Ni45	Ni	0.623700	0.938490	0.209858
Ni46	Ni	0.748700	0.811510	0.334858
Ni47	Ni	0.623700	0.938490	0.709858
Ni48	Ni	0.748700	0.811510	0.834858
Ni49	Ni	0.873700	0.188490	0.209858
Ni50	Ni	0.998700	0.061510	0.334858
Ni51	Ni	0.873700	0.188490	0.709858
Ni52	Ni	0.998700	0.061510	0.834858
Ni53	Ni	0.998700	0.311510	0.084858
Ni54	Ni	0.873700	0.438490	0.459858
Ni55	Ni	0.998700	0.311510	0.584858
Ni56	Ni	0.873700	0.438490	0.959858
Ni57	Ni	0.873700	0.688490	0.209858
Ni58	Ni	0.998700	0.561510	0.334858
Ni59	Ni	0.873700	0.688490	0.709858
Ni60	Ni	0.998700	0.561510	0.834858
Ni61	Ni	0.998700	0.811510	0.084858
Ni62	Ni	0.873700	0.938490	0.459858
Ni63	Ni	0.998700	0.811510	0.584858
Ni64	Ni	0.873700	0.938490	0.959858

loop_
_geom_bond_atom_site_label_1
_geom_bond_atom_site_label_2
_geom_bond_distance
Ni1	Ni17	0.21766
Ni2	Ni3	0.21766
Ni2	Ni6	0.21537
Ni3	Ni19	0.21766
Ni4	Ni8	0.21537
Ni5	Ni6	0.21766
Ni5	Ni9	0.21537
Ni6	Ni17	0.21537
Ni6	Ni22	0.21766
Ni7	Ni8	0.21766
Ni7	Ni11	0.21537
Ni8	Ni19	0.21537
Ni8	Ni24	0.21766
Ni9	Ni25	0.21766
Ni10	Ni11	0.21766
Ni10	Ni14	0.21537
Ni11	Ni22	0.21537
Ni11	Ni27	0.21766
Ni12	Ni16	0.21537
Ni13	Ni14	0.21766
Ni14	Ni25	0.21537
Ni14	Ni30	0.21766
Ni15	Ni16	0.21766
Ni16	Ni27	0.21537
Ni16	Ni32	0.21766
Ni17	Ni18	0.21766
Ni17	Ni21	0.21537
Ni18	Ni34	0.21766
Ni19	Ni20	0.21766
Ni19	Ni23	0.21537
Ni20	Ni36	0.21766
Ni21	Ni37	0.21766
Ni22	Ni23	0.21766
Ni22	Ni26	0.21537
Ni23	Ni34	0.21537
Ni23	Ni39	0.21766
Ni24	Ni28	0.21537
Ni25	Ni26	0.21766
Ni25	Ni29	0.21537
Ni26	Ni37	0.21537
Ni26	Ni42	0.21766
Ni27	Ni28	0.21766
Ni27	Ni31	0.21537
Ni28	Ni39	0.21537
Ni28	Ni44	0.21766
Ni29	Ni45	0.21766
Ni30	Ni31	0.21766
Ni31	Ni42	0.21537
Ni31	Ni47	0.21766
Ni33	Ni49	0.21766
Ni34	Ni35	0.21766
Ni34	Ni38	0.21537
Ni35	Ni51	0.21766
Ni36	Ni40	0.21537
Ni37	Ni38	0.21766
Ni37	Ni41	0.21537
Ni38	Ni49	0.21537
Ni38	Ni54	0.21766
Ni39	Ni40	0.21766
Ni39	Ni43	0.21537
Ni40	Ni51	0.21537
Ni40	Ni56	0.21766
Ni41	Ni57	0.21766
Ni42	Ni43	0.21766
Ni42	Ni46	0.21537
Ni43	Ni54	0.21537
Ni43	Ni59	0.21766
Ni44	Ni48	0.21537
Ni45	Ni46	0.21766
Ni46	Ni57	0.21537
Ni46	Ni62	0.21766
Ni47	Ni48	0.21766
Ni48	Ni59	0.21537
Ni48	Ni64	0.21766
Ni49	Ni50	0.21766
Ni49	Ni53	0.21537
Ni51	Ni52	0.21766
Ni51	Ni55	0.21537
Ni54	Ni55	0.21766
Ni54	Ni58	0.21537
Ni56	Ni60	0.21537
Ni57	Ni58	0.21766
Ni57	Ni61	0.21537
Ni59	Ni60	0.21766
Ni59	Ni63	0.21537
Ni62	Ni63	0.21766
