units           real
atom_style      full
boundary        p p p

pair_style      lj/cut 5.000
bond_style      harmonic
angle_style     hybrid cosine/periodic fourier
dihedral_style  harmonic
improper_style  fourier

dielectric      1.0
pair_modify     tail yes mix arithmetic
special_bonds   lj/coul 0.0 0.0 1.0
box tilt        large
read_data       data.NiPyC2_relax_sc211_meta_functionalized_N-2CH3
  triclinic box = (0 0 0) to (12.5056 12.5234 10.2743) with tilt (0 -0.227594 0)
  reading atoms ...
  172 atoms
  scanning bonds ...
  scanning angles ...
  scanning dihedrals ...
  scanning impropers ...
  reading bonds ...
  192 bonds
  reading angles ...
  364 angles
  reading dihedrals ...
  384 dihedrals
  reading impropers ...
  192 impropers

#### Atom Groupings ####
group           fram     id   1:172
172 atoms in group fram
#### END Atom Groupings ####

dump            NiPyC2_relax_sc211_meta_functionalized_N-2CH3_xyzmov all xyz 20000 NiPyC2_relax_sc211_meta_functionalized_N-2CH3_mov.xyz
dump_modify     NiPyC2_relax_sc211_meta_functionalized_N-2CH3_xyzmov element Ni O N C H N C
min_style       cg
print           "MinStep,CellMinStep,AtomMinStep,FinalStep,Energy,EDiff" file NiPyC2_relax_sc211_meta_functionalized_N-2CH3.min.csv screen no
variable        min_eval   equal 1.00e-06
variable        prev_E     equal 50000.00
variable        iter       loop 100000
label           loop_min
min_style       cg
fix             1 all box/relax aniso 0.0 vmax 0.01
minimize        1.0e-15 1.0e-15 10000 100000
  update every 1 steps, delay 0 steps, check yes
Step Temp E_pair E_mol TotEng Press Volume
0            0 3.2374874e+12    2385.7143 3.2374874e+12 5.5184122e+14    1609.0819
Loop time of 0.141087 on 1 procs for 364 steps with 172 atoms

Minimization stats:
  Stopping criterion = linesearch alpha is zero
  Energy initial, next-to-last, final =
  Force two-norm initial, final = 1.62401e+14 87.9553
  Force max component initial, final = 7.47268e+13 69.0989
  Final line search alpha, max atom move = 1.18363e-12 8.17872e-11
  Iterations, force evaluations = 364 565

unfix           1
min_style       fire
variable        tempstp    equal $(step)
variable        tempstp    equal 364
variable        CellMinStep equal 364
minimize        1.0e-15 1.0e-15 10000 100000
  Parameters for fire:
    dmax delaystep dtgrow dtshrink alpha0 alphashrink tmax tmin    integrator halfstepback
     0.1        20    1.1      0.5   0.25        0.99   10 0.02 eulerimplicit          yes
Step Temp E_pair E_mol TotEng Press
364            0     220.2506    1837.4366    2057.6872    -816.4059
Loop time of 1.30993 on 1 procs for 6303 steps with 172 atoms

Minimization stats:
  Stopping criterion = energy tolerance
  Energy initial, next-to-last, final =
  Force two-norm initial, final = 53.0355 3.58028e-05
  Force max component initial, final = 14.8655 1.23067e-05
  Final line search alpha, max atom move = 0 0
  Iterations, force evaluations = 6303 6303

variable        AtomMinStep equal 364
variable        temppe     equal $(pe)
variable        temppe     equal 1934.0854702342505789
variable        min_E      equal abs(50000-1934.08547023425)
variable        prev_E     equal 1934.08547023425
next            iter
jump            SELF loop_min
min_style       cg
fix             1 all box/relax aniso 0.0 vmax 0.01
minimize        1.0e-15 1.0e-15 10000 100000
Step Temp E_pair E_mol TotEng Press Volume
6667 9.4420442e-11      151.776    1782.3095    1934.0855   -18990.384    1677.3529
Loop time of 0.0246787 on 1 procs for 23 steps with 172 atoms

Minimization stats:
  Stopping criterion = linesearch alpha is zero
  Energy initial, next-to-last, final =
  Force two-norm initial, final = 1049.52 53.4693
  Force max component initial, final = 1014.62 36.2188
  Final line search alpha, max atom move = 2.55751e-12 9.26298e-11
  Iterations, force evaluations = 23 101

unfix           1
min_style       fire
variable        tempstp    equal $(step)
variable        tempstp    equal 6690
variable        CellMinStep equal 6690
minimize        1.0e-15 1.0e-15 10000 100000
  Parameters for fire:
    dmax delaystep dtgrow dtshrink alpha0 alphashrink tmax tmin    integrator halfstepback
     0.1        20    1.1      0.5   0.25        0.99   10 0.02 eulerimplicit          yes
Step Temp E_pair E_mol TotEng Press
6690            0    179.32592    1743.8321    1923.1581   -820.16558
Loop time of 1.00745 on 1 procs for 4808 steps with 172 atoms

Minimization stats:
  Stopping criterion = energy tolerance
  Energy initial, next-to-last, final =
  Force two-norm initial, final = 34.7533 4.93548e-05
  Force max component initial, final = 7.04164 1.03824e-05
  Final line search alpha, max atom move = 0 0
  Iterations, force evaluations = 4808 4808

variable        AtomMinStep equal 6690
variable        temppe     equal $(pe)
variable        temppe     equal 1918.6288324543265844
variable        min_E      equal abs(1934.08547023425-1918.62883245433)
variable        prev_E     equal 1918.62883245433
next            iter
jump            SELF loop_min
min_style       cg
fix             1 all box/relax aniso 0.0 vmax 0.01
minimize        1.0e-15 1.0e-15 10000 100000
Step Temp E_pair E_mol TotEng Press Volume
11498 1.6006812e-10    166.84104    1751.7878    1918.6288   -3779.4451    1646.7924
Loop time of 0.0170064 on 1 procs for 8 steps with 172 atoms

Minimization stats:
  Stopping criterion = linesearch alpha is zero
  Energy initial, next-to-last, final =
  Force two-norm initial, final = 345.893 63.8547
  Force max component initial, final = 330.842 41.9429
  Final line search alpha, max atom move = 2.5634e-12 1.07516e-10
  Iterations, force evaluations = 8 69

unfix           1
min_style       fire
variable        tempstp    equal $(step)
variable        tempstp    equal 11506
variable        CellMinStep equal 11506
minimize        1.0e-15 1.0e-15 10000 100000
  Parameters for fire:
    dmax delaystep dtgrow dtshrink alpha0 alphashrink tmax tmin    integrator halfstepback
     0.1        20    1.1      0.5   0.25        0.99   10 0.02 eulerimplicit          yes
Step Temp E_pair E_mol TotEng Press
11506            0     173.0809    1744.4394    1917.5203   -285.27683
Loop time of 0.940877 on 1 procs for 4460 steps with 172 atoms

Minimization stats:
  Stopping criterion = energy tolerance
  Energy initial, next-to-last, final =
  Force two-norm initial, final = 26.2042 4.25478e-05
  Force max component initial, final = 3.88907 9.27166e-06
  Final line search alpha, max atom move = 0 0
  Iterations, force evaluations = 4460 4460

variable        AtomMinStep equal 11506
variable        temppe     equal $(pe)
variable        temppe     equal 1916.6639159962755912
variable        min_E      equal abs(1918.62883245433-1916.66391599628)
variable        prev_E     equal 1916.66391599628
next            iter
jump            SELF loop_min
min_style       cg
fix             1 all box/relax aniso 0.0 vmax 0.01
minimize        1.0e-15 1.0e-15 10000 100000
Step Temp E_pair E_mol TotEng Press Volume
15966 1.1415638e-10    169.44187     1747.222    1916.6639   -1312.3582    1643.4068
Loop time of 0.0150568 on 1 procs for 5 steps with 172 atoms

Minimization stats:
  Stopping criterion = linesearch alpha is zero
  Energy initial, next-to-last, final =
  Force two-norm initial, final = 221.894 32.7207
  Force max component initial, final = 186.473 23.4805
  Final line search alpha, max atom move = 8.46885e-12 1.98853e-10
  Iterations, force evaluations = 5 61

unfix           1
min_style       fire
variable        tempstp    equal $(step)
variable        tempstp    equal 15971
variable        CellMinStep equal 15971
minimize        1.0e-15 1.0e-15 10000 100000
  Parameters for fire:
    dmax delaystep dtgrow dtshrink alpha0 alphashrink tmax tmin    integrator halfstepback
     0.1        20    1.1      0.5   0.25        0.99   10 0.02 eulerimplicit          yes
Step Temp E_pair E_mol TotEng Press
15971            0    171.70524    1744.4696    1916.1748    253.24774
Loop time of 1.80807 on 1 procs for 8628 steps with 172 atoms

Minimization stats:
  Stopping criterion = energy tolerance
  Energy initial, next-to-last, final =
  Force two-norm initial, final = 21.4588 4.02774e-05
  Force max component initial, final = 5.12146 8.89829e-06
  Final line search alpha, max atom move = 0 0
  Iterations, force evaluations = 8628 8628

variable        AtomMinStep equal 15971
variable        temppe     equal $(pe)
variable        temppe     equal 1915.7471300002023327
variable        min_E      equal abs(1916.66391599628-1915.7471300002)
variable        prev_E     equal 1915.7471300002
next            iter
jump            SELF loop_min
min_style       cg
fix             1 all box/relax aniso 0.0 vmax 0.01
minimize        1.0e-15 1.0e-15 10000 100000
Step Temp E_pair E_mol TotEng Press Volume
24599 1.2861176e-10     169.9298    1745.8173    1915.7471   -529.10466    1642.6429
Loop time of 0.0135493 on 1 procs for 2 steps with 172 atoms

Minimization stats:
  Stopping criterion = linesearch alpha is zero
  Energy initial, next-to-last, final =
  Force two-norm initial, final = 183.804 44.7709
  Force max component initial, final = 135.754 31.2838
  Final line search alpha, max atom move = 3.92343e-12 1.2274e-10
  Iterations, force evaluations = 2 55

unfix           1
min_style       fire
variable        tempstp    equal $(step)
variable        tempstp    equal 24601
variable        CellMinStep equal 24601
minimize        1.0e-15 1.0e-15 10000 100000
  Parameters for fire:
    dmax delaystep dtgrow dtshrink alpha0 alphashrink tmax tmin    integrator halfstepback
     0.1        20    1.1      0.5   0.25        0.99   10 0.02 eulerimplicit          yes
Step Temp E_pair E_mol TotEng Press
24601            0    171.35885    1744.1824    1915.5413    945.35021
Loop time of 2.09729 on 1 procs for 10000 steps with 172 atoms

Minimization stats:
  Stopping criterion = max iterations
  Energy initial, next-to-last, final =
  Force two-norm initial, final = 16.3804 1.28715
  Force max component initial, final = 2.49264 0.481236
  Final line search alpha, max atom move = 0 0
  Iterations, force evaluations = 10000 10000

variable        AtomMinStep equal 24601
variable        temppe     equal $(pe)
variable        temppe     equal 1860.5324085938198095
variable        min_E      equal abs(1915.7471300002-1860.53240859382)
variable        prev_E     equal 1860.53240859382
next            iter
jump            SELF loop_min
min_style       cg
fix             1 all box/relax aniso 0.0 vmax 0.01
minimize        1.0e-15 1.0e-15 10000 100000
Step Temp E_pair E_mol TotEng Press Volume
34601 0.0035265755    131.75353    1728.7789    1860.5342   -8823.1728    1641.8804
Loop time of 0.022027 on 1 procs for 18 steps with 172 atoms

Minimization stats:
  Stopping criterion = linesearch alpha is zero
  Energy initial, next-to-last, final =
  Force two-norm initial, final = 672.057 101.147
  Force max component initial, final = 602.08 79.787
  Final line search alpha, max atom move = 9.09107e-13 7.25349e-11
  Iterations, force evaluations = 18 89

unfix           1
min_style       fire
variable        tempstp    equal $(step)
variable        tempstp    equal 34619
variable        CellMinStep equal 34619
minimize        1.0e-15 1.0e-15 10000 100000
  Parameters for fire:
    dmax delaystep dtgrow dtshrink alpha0 alphashrink tmax tmin    integrator halfstepback
     0.1        20    1.1      0.5   0.25        0.99   10 0.02 eulerimplicit          yes
Step Temp E_pair E_mol TotEng Press
34619            0    144.30497      1707.22     1851.525   -779.86899
Loop time of 0.453101 on 1 procs for 2158 steps with 172 atoms

Minimization stats:
  Stopping criterion = energy tolerance
  Energy initial, next-to-last, final =
  Force two-norm initial, final = 51.4035 3.63676e-05
  Force max component initial, final = 10.9312 7.95114e-06
  Final line search alpha, max atom move = 0 0
  Iterations, force evaluations = 2158 2158

variable        AtomMinStep equal 34619
variable        temppe     equal $(pe)
variable        temppe     equal 1847.2673758728958546
variable        min_E      equal abs(1860.53240859382-1847.2673758729)
variable        prev_E     equal 1847.2673758729
next            iter
jump            SELF loop_min
min_style       cg
fix             1 all box/relax aniso 0.0 vmax 0.01
minimize        1.0e-15 1.0e-15 10000 100000
Step Temp E_pair E_mol TotEng Press Volume
36777 8.786002e-11    132.83083    1714.4365    1847.2674   -3677.5976    1626.6723
Loop time of 0.0333762 on 1 procs for 34 steps with 172 atoms

Minimization stats:
  Stopping criterion = linesearch alpha is zero
  Energy initial, next-to-last, final =
  Force two-norm initial, final = 385.815 75.3613
  Force max component initial, final = 307.938 67.3943
  Final line search alpha, max atom move = 1.80609e-12 1.2172e-10
  Iterations, force evaluations = 34 127

unfix           1
min_style       fire
variable        tempstp    equal $(step)
variable        tempstp    equal 36811
variable        CellMinStep equal 36811
minimize        1.0e-15 1.0e-15 10000 100000
  Parameters for fire:
    dmax delaystep dtgrow dtshrink alpha0 alphashrink tmax tmin    integrator halfstepback
     0.1        20    1.1      0.5   0.25        0.99   10 0.02 eulerimplicit          yes
Step Temp E_pair E_mol TotEng Press
36811            0    138.49562     1704.703    1843.1986   -1211.6668
Loop time of 0.480946 on 1 procs for 2284 steps with 172 atoms

Minimization stats:
  Stopping criterion = energy tolerance
  Energy initial, next-to-last, final =
  Force two-norm initial, final = 29.3296 4.10074e-05
  Force max component initial, final = 4.53412 7.33304e-06
  Final line search alpha, max atom move = 0 0
  Iterations, force evaluations = 2284 2284

variable        AtomMinStep equal 36811
variable        temppe     equal $(pe)
variable        temppe     equal 1840.6520099660604046
variable        min_E      equal abs(1847.2673758729-1840.65200996606)
variable        prev_E     equal 1840.65200996606
next            iter
jump            SELF loop_min
min_style       cg
fix             1 all box/relax aniso 0.0 vmax 0.01
minimize        1.0e-15 1.0e-15 10000 100000
Step Temp E_pair E_mol TotEng Press Volume
39095 1.0221586e-10    132.09334    1708.5587     1840.652   -2098.1529    1618.2936
Loop time of 0.0191325 on 1 procs for 3 steps with 172 atoms

Minimization stats:
  Stopping criterion = linesearch alpha is zero
  Energy initial, next-to-last, final =
  Force two-norm initial, final = 202.982 17.4497
  Force max component initial, final = 158.476 3.88277
  Final line search alpha, max atom move = 2.20698e-11 8.5692e-11
  Iterations, force evaluations = 3 61

unfix           1
min_style       fire
variable        tempstp    equal $(step)
variable        tempstp    equal 39098
variable        CellMinStep equal 39098
minimize        1.0e-15 1.0e-15 10000 100000
  Parameters for fire:
    dmax delaystep dtgrow dtshrink alpha0 alphashrink tmax tmin    integrator halfstepback
     0.1        20    1.1      0.5   0.25        0.99   10 0.02 eulerimplicit          yes
Step Temp E_pair E_mol TotEng Press
39098            0    133.80979    1706.6308    1840.4406   -25.443673
Loop time of 0.352789 on 1 procs for 1639 steps with 172 atoms

Minimization stats:
  Stopping criterion = energy tolerance
  Energy initial, next-to-last, final =
  Force two-norm initial, final = 16.9417 4.40265e-05
  Force max component initial, final = 2.51291 8.76328e-06
  Final line search alpha, max atom move = 0 0
  Iterations, force evaluations = 1639 1639

variable        AtomMinStep equal 39098
variable        temppe     equal $(pe)
variable        temppe     equal 1840.2301527528441056
variable        min_E      equal abs(1840.65200996606-1840.23015275284)
variable        prev_E     equal 1840.23015275284
next            iter
jump            SELF loop_min
min_style       cg
fix             1 all box/relax aniso 0.0 vmax 0.01
minimize        1.0e-15 1.0e-15 10000 100000
Step Temp E_pair E_mol TotEng Press Volume
40737 1.4422265e-10    132.38056    1707.8496    1840.2302   -1677.2576    1616.9025
Loop time of 0.0164031 on 1 procs for 3 steps with 172 atoms

Minimization stats:
  Stopping criterion = linesearch alpha is zero
  Energy initial, next-to-last, final =
  Force two-norm initial, final = 181.346 15.6586
  Force max component initial, final = 134.653 2.45104
  Final line search alpha, max atom move = 3.17165e-11 7.77385e-11
  Iterations, force evaluations = 3 61

unfix           1
min_style       fire
variable        tempstp    equal $(step)
variable        tempstp    equal 40740
variable        CellMinStep equal 40740
minimize        1.0e-15 1.0e-15 10000 100000
  Parameters for fire:
    dmax delaystep dtgrow dtshrink alpha0 alphashrink tmax tmin    integrator halfstepback
     0.1        20    1.1      0.5   0.25        0.99   10 0.02 eulerimplicit          yes
Step Temp E_pair E_mol TotEng Press
40740            0    133.67291     1706.323    1839.9959   -3.2308454
Loop time of 0.357631 on 1 procs for 1662 steps with 172 atoms

Minimization stats:
  Stopping criterion = energy tolerance
  Energy initial, next-to-last, final =
  Force two-norm initial, final = 15.3666 3.69574e-05
  Force max component initial, final = 2.2279 9.97756e-06
  Final line search alpha, max atom move = 0 0
  Iterations, force evaluations = 1662 1662

variable        AtomMinStep equal 40740
variable        temppe     equal $(pe)
variable        temppe     equal 1839.8495876985339237
variable        min_E      equal abs(1840.23015275284-1839.84958769853)
variable        prev_E     equal 1839.84958769853
next            iter
jump            SELF loop_min
min_style       cg
fix             1 all box/relax aniso 0.0 vmax 0.01
minimize        1.0e-15 1.0e-15 10000 100000
Step Temp E_pair E_mol TotEng Press Volume
42402 8.4741031e-11    132.50549    1707.3441    1839.8496   -1400.5922    1615.8307
Loop time of 0.0147038 on 1 procs for 3 steps with 172 atoms

Minimization stats:
  Stopping criterion = linesearch alpha is zero
  Energy initial, next-to-last, final =
  Force two-norm initial, final = 163.258 15.2281
  Force max component initial, final = 116.488 5.05467
  Final line search alpha, max atom move = 2.90833e-11 1.47007e-10
  Iterations, force evaluations = 3 59

unfix           1
min_style       fire
variable        tempstp    equal $(step)
variable        tempstp    equal 42405
variable        CellMinStep equal 42405
minimize        1.0e-15 1.0e-15 10000 100000
  Parameters for fire:
    dmax delaystep dtgrow dtshrink alpha0 alphashrink tmax tmin    integrator halfstepback
     0.1        20    1.1      0.5   0.25        0.99   10 0.02 eulerimplicit          yes
Step Temp E_pair E_mol TotEng Press
42405            0    133.51896     1706.206     1839.725    -123.4361
Loop time of 0.367171 on 1 procs for 1728 steps with 172 atoms

Minimization stats:
  Stopping criterion = energy tolerance
  Energy initial, next-to-last, final =
  Force two-norm initial, final = 14.055 3.7983e-05
  Force max component initial, final = 1.99405 1.03512e-05
  Final line search alpha, max atom move = 0 0
  Iterations, force evaluations = 1728 1728

variable        AtomMinStep equal 42405
variable        temppe     equal $(pe)
variable        temppe     equal 1839.5811191738100661
variable        min_E      equal abs(1839.84958769853-1839.58111917381)
variable        prev_E     equal 1839.58111917381
next            iter
jump            SELF loop_min
min_style       cg
fix             1 all box/relax aniso 0.0 vmax 0.01
minimize        1.0e-15 1.0e-15 10000 100000
Step Temp E_pair E_mol TotEng Press Volume
44133 1.0086253e-10    132.56881    1707.0123    1839.5811   -1243.2199     1615.083
Loop time of 0.014705 on 1 procs for 3 steps with 172 atoms

Minimization stats:
  Stopping criterion = linesearch alpha is zero
  Energy initial, next-to-last, final =
  Force two-norm initial, final = 147.886 13.7667
  Force max component initial, final = 102.649 4.27711
  Final line search alpha, max atom move = 3.55595e-11 1.52092e-10
  Iterations, force evaluations = 3 59

unfix           1
min_style       fire
variable        tempstp    equal $(step)
variable        tempstp    equal 44136
variable        CellMinStep equal 44136
minimize        1.0e-15 1.0e-15 10000 100000
  Parameters for fire:
    dmax delaystep dtgrow dtshrink alpha0 alphashrink tmax tmin    integrator halfstepback
     0.1        20    1.1      0.5   0.25        0.99   10 0.02 eulerimplicit          yes
Step Temp E_pair E_mol TotEng Press
44136            0    133.46664     1706.026    1839.4927   -111.20006
Loop time of 0.368588 on 1 procs for 1720 steps with 172 atoms

Minimization stats:
  Stopping criterion = energy tolerance
  Energy initial, next-to-last, final =
  Force two-norm initial, final = 12.7698 3.46777e-05
  Force max component initial, final = 1.78847 8.19192e-06
  Final line search alpha, max atom move = 0 0
  Iterations, force evaluations = 1720 1720

variable        AtomMinStep equal 44136
variable        temppe     equal $(pe)
variable        temppe     equal 1839.321333708480779
variable        min_E      equal abs(1839.58111917381-1839.32133370848)
variable        prev_E     equal 1839.32133370848
next            iter
jump            SELF loop_min
min_style       cg
fix             1 all box/relax aniso 0.0 vmax 0.01
minimize        1.0e-15 1.0e-15 10000 100000
Step Temp E_pair E_mol TotEng Press Volume
45856 7.5336261e-11    132.56979    1706.7515    1839.3213   -1126.3466    1614.4343
Loop time of 0.0155959 on 1 procs for 4 steps with 172 atoms

Minimization stats:
  Stopping criterion = linesearch alpha is zero
  Energy initial, next-to-last, final =
  Force two-norm initial, final = 134.564 54.3204
  Force max component initial, final = 91.3959 44.84
  Final line search alpha, max atom move = 2.87851e-12 1.29072e-10
  Iterations, force evaluations = 4 63

unfix           1
min_style       fire
variable        tempstp    equal $(step)
variable        tempstp    equal 45860
variable        CellMinStep equal 45860
minimize        1.0e-15 1.0e-15 10000 100000
  Parameters for fire:
    dmax delaystep dtgrow dtshrink alpha0 alphashrink tmax tmin    integrator halfstepback
     0.1        20    1.1      0.5   0.25        0.99   10 0.02 eulerimplicit          yes
Step Temp E_pair E_mol TotEng Press
45860            0    133.84885    1705.4173    1839.2662    250.44404
Loop time of 0.412186 on 1 procs for 1938 steps with 172 atoms

Minimization stats:
  Stopping criterion = energy tolerance
  Energy initial, next-to-last, final =
  Force two-norm initial, final = 12.1336 3.51559e-05
  Force max component initial, final = 1.72637 1.04475e-05
  Final line search alpha, max atom move = 0 0
  Iterations, force evaluations = 1938 1938

variable        AtomMinStep equal 45860
variable        temppe     equal $(pe)
variable        temppe     equal 1839.1141653190720717
variable        min_E      equal abs(1839.32133370848-1839.11416531907)
variable        prev_E     equal 1839.11416531907
next            iter
jump            SELF loop_min
min_style       cg
fix             1 all box/relax aniso 0.0 vmax 0.01
minimize        1.0e-15 1.0e-15 10000 100000
Step Temp E_pair E_mol TotEng Press Volume
47798 8.1764634e-11    132.62507    1706.4891    1839.1142   -1035.2413    1613.5221
Loop time of 0.0147447 on 1 procs for 5 steps with 172 atoms

Minimization stats:
  Stopping criterion = linesearch alpha is zero
  Energy initial, next-to-last, final =
  Force two-norm initial, final = 116.598 24.1111
  Force max component initial, final = 81.8485 16.5135
  Final line search alpha, max atom move = 2.10459e-11 3.47542e-10
  Iterations, force evaluations = 5 59

unfix           1
min_style       fire
variable        tempstp    equal $(step)
variable        tempstp    equal 47803
variable        CellMinStep equal 47803
minimize        1.0e-15 1.0e-15 10000 100000
  Parameters for fire:
    dmax delaystep dtgrow dtshrink alpha0 alphashrink tmax tmin    integrator halfstepback
     0.1        20    1.1      0.5   0.25        0.99   10 0.02 eulerimplicit          yes
Step Temp E_pair E_mol TotEng Press
47803            0    133.48679    1705.4286    1838.9154   -470.24099
Loop time of 0.410697 on 1 procs for 1921 steps with 172 atoms

Minimization stats:
  Stopping criterion = energy tolerance
  Energy initial, next-to-last, final =
  Force two-norm initial, final = 11.4674 3.31141e-05
  Force max component initial, final = 2.93927 1.0008e-05
  Final line search alpha, max atom move = 0 0
  Iterations, force evaluations = 1921 1921

variable        AtomMinStep equal 47803
variable        temppe     equal $(pe)
variable        temppe     equal 1838.7666222233299322
variable        min_E      equal abs(1839.11416531907-1838.76662222333)
variable        prev_E     equal 1838.76662222333
next            iter
jump            SELF loop_min
min_style       cg
fix             1 all box/relax aniso 0.0 vmax 0.01
minimize        1.0e-15 1.0e-15 10000 100000
Step Temp E_pair E_mol TotEng Press Volume
49724 1.0586991e-10    132.40572    1706.3609    1838.7666   -1017.3844    1612.9302
Loop time of 0.0157563 on 1 procs for 6 steps with 172 atoms

Minimization stats:
  Stopping criterion = linesearch alpha is zero
  Energy initial, next-to-last, final =
  Force two-norm initial, final = 101.144 19.7145
  Force max component initial, final = 71.2202 12.8827
  Final line search alpha, max atom move = 7.12965e-11 9.1849e-10
  Iterations, force evaluations = 6 63

unfix           1
min_style       fire
variable        tempstp    equal $(step)
variable        tempstp    equal 49730
variable        CellMinStep equal 49730
minimize        1.0e-15 1.0e-15 10000 100000
  Parameters for fire:
    dmax delaystep dtgrow dtshrink alpha0 alphashrink tmax tmin    integrator halfstepback
     0.1        20    1.1      0.5   0.25        0.99   10 0.02 eulerimplicit          yes
Step Temp E_pair E_mol TotEng Press
49730            0    134.14662    1704.5541    1838.7008    394.32696
Loop time of 0.51025 on 1 procs for 2395 steps with 172 atoms

Minimization stats:
  Stopping criterion = energy tolerance
  Energy initial, next-to-last, final =
  Force two-norm initial, final = 10.5287 3.90872e-05
  Force max component initial, final = 2.75429 1.10211e-05
  Final line search alpha, max atom move = 0 0
  Iterations, force evaluations = 2395 2395

variable        AtomMinStep equal 49730
variable        temppe     equal $(pe)
variable        temppe     equal 1838.6049512920926645
variable        min_E      equal abs(1838.76662222333-1838.60495129209)
variable        prev_E     equal 1838.60495129209
next            iter
jump            SELF loop_min
min_style       cg
fix             1 all box/relax aniso 0.0 vmax 0.01
minimize        1.0e-15 1.0e-15 10000 100000
Step Temp E_pair E_mol TotEng Press Volume
52125 1.2526875e-10    132.77658    1705.8284     1838.605   -622.11665    1611.5284
Loop time of 0.0148188 on 1 procs for 5 steps with 172 atoms

Minimization stats:
  Stopping criterion = linesearch alpha is zero
  Energy initial, next-to-last, final =
  Force two-norm initial, final = 84.0155 16.8127
  Force max component initial, final = 53.3784 10.5186
  Final line search alpha, max atom move = 2.99051e-11 3.14559e-10
  Iterations, force evaluations = 5 59

unfix           1
min_style       fire
variable        tempstp    equal $(step)
variable        tempstp    equal 52130
variable        CellMinStep equal 52130
minimize        1.0e-15 1.0e-15 10000 100000
  Parameters for fire:
    dmax delaystep dtgrow dtshrink alpha0 alphashrink tmax tmin    integrator halfstepback
     0.1        20    1.1      0.5   0.25        0.99   10 0.02 eulerimplicit          yes
Step Temp E_pair E_mol TotEng Press
52130            0    133.26564    1705.2167    1838.4824   -328.26943
Loop time of 0.508901 on 1 procs for 2416 steps with 172 atoms

Minimization stats:
  Stopping criterion = energy tolerance
  Energy initial, next-to-last, final =
  Force two-norm initial, final = 8.48153 3.0539e-05
  Force max component initial, final = 2.21085 1.01591e-05
  Final line search alpha, max atom move = 0 0
  Iterations, force evaluations = 2416 2416

variable        AtomMinStep equal 52130
variable        temppe     equal $(pe)
variable        temppe     equal 1838.4680304708342646
variable        min_E      equal abs(1838.60495129209-1838.46803047083)
variable        prev_E     equal 1838.46803047083
next            iter
jump            SELF loop_min
min_style       cg
fix             1 all box/relax aniso 0.0 vmax 0.01
minimize        1.0e-15 1.0e-15 10000 100000
Step Temp E_pair E_mol TotEng Press Volume
54546 8.9421208e-11    132.63846    1705.8296     1838.468   -667.95022    1611.2268
Loop time of 0.0144398 on 1 procs for 3 steps with 172 atoms

Minimization stats:
  Stopping criterion = linesearch alpha is zero
  Energy initial, next-to-last, final =
  Force two-norm initial, final = 73.2339 6.80357
  Force max component initial, final = 47.9168 1.95593
  Final line search alpha, max atom move = 1.4698e-10 2.87483e-10
  Iterations, force evaluations = 3 57

unfix           1
min_style       fire
variable        tempstp    equal $(step)
variable        tempstp    equal 54549
variable        CellMinStep equal 54549
minimize        1.0e-15 1.0e-15 10000 100000
  Parameters for fire:
    dmax delaystep dtgrow dtshrink alpha0 alphashrink tmax tmin    integrator halfstepback
     0.1        20    1.1      0.5   0.25        0.99   10 0.02 eulerimplicit          yes
Step Temp E_pair E_mol TotEng Press
54549            0    133.06431    1705.3325    1838.3968   -59.853766
Loop time of 0.346964 on 1 procs for 1646 steps with 172 atoms

Minimization stats:
  Stopping criterion = energy tolerance
  Energy initial, next-to-last, final =
  Force two-norm initial, final = 6.29806 3.82325e-05
  Force max component initial, final = 0.855886 9.26931e-06
  Final line search alpha, max atom move = 0 0
  Iterations, force evaluations = 1646 1646

variable        AtomMinStep equal 54549
variable        temppe     equal $(pe)
variable        temppe     equal 1838.4756140029196558
variable        min_E      equal abs(1838.46803047083-1838.47561400292)
variable        prev_E     equal 1838.47561400292
next            iter
jump            SELF loop_min
min_style       cg
fix             1 all box/relax aniso 0.0 vmax 0.01
minimize        1.0e-15 1.0e-15 10000 100000
Step Temp E_pair E_mol TotEng Press Volume
56195 9.5810406e-11    132.73734    1705.7383    1838.4756   -602.26332    1610.8634
Loop time of 0.0145297 on 1 procs for 3 steps with 172 atoms

Minimization stats:
  Stopping criterion = linesearch alpha is zero
  Energy initial, next-to-last, final =
  Force two-norm initial, final = 67.0802 6.22703
  Force max component initial, final = 43.2155 1.7236
  Final line search alpha, max atom move = 1.68979e-10 2.91252e-10
  Iterations, force evaluations = 3 57

unfix           1
min_style       fire
variable        tempstp    equal $(step)
variable        tempstp    equal 56198
variable        CellMinStep equal 56198
minimize        1.0e-15 1.0e-15 10000 100000
  Parameters for fire:
    dmax delaystep dtgrow dtshrink alpha0 alphashrink tmax tmin    integrator halfstepback
     0.1        20    1.1      0.5   0.25        0.99   10 0.02 eulerimplicit          yes
Step Temp E_pair E_mol TotEng Press
56198            0    133.13077    1705.2968    1838.4276   -54.393182
Loop time of 0.363008 on 1 procs for 1728 steps with 172 atoms

Minimization stats:
  Stopping criterion = energy tolerance
  Energy initial, next-to-last, final =
  Force two-norm initial, final = 5.77593 3.62738e-05
  Force max component initial, final = 0.778272 1.07771e-05
  Final line search alpha, max atom move = 0 0
  Iterations, force evaluations = 1728 1728

variable        AtomMinStep equal 56198
variable        temppe     equal $(pe)
variable        temppe     equal 1838.4050219950327119
variable        min_E      equal abs(1838.47561400292-1838.40502199503)
variable        prev_E     equal 1838.40502199503
next            iter
jump            SELF loop_min
min_style       cg
fix             1 all box/relax aniso 0.0 vmax 0.01
minimize        1.0e-15 1.0e-15 10000 100000
Step Temp E_pair E_mol TotEng Press Volume
57926 9.8242866e-11    132.74676    1705.6583     1838.405   -550.77607    1610.5408
Loop time of 0.0136981 on 1 procs for 1 steps with 172 atoms

Minimization stats:
  Stopping criterion = linesearch alpha is zero
  Energy initial, next-to-last, final =
  Force two-norm initial, final = 61.1722 61.1722
  Force max component initial, final = 38.6547 38.6547
  Final line search alpha, max atom move = 1.92747e-12 7.45058e-11
  Iterations, force evaluations = 1 55

unfix           1
min_style       fire
variable        tempstp    equal $(step)
variable        tempstp    equal 57927
variable        CellMinStep equal 57927
minimize        1.0e-15 1.0e-15 10000 100000
  Parameters for fire:
    dmax delaystep dtgrow dtshrink alpha0 alphashrink tmax tmin    integrator halfstepback
     0.1        20    1.1      0.5   0.25        0.99   10 0.02 eulerimplicit          yes
Step Temp E_pair E_mol TotEng Press
57927            0    132.74676    1705.6583     1838.405   -550.77607
Loop time of 0.0119904 on 1 procs for 55 steps with 172 atoms

Minimization stats:
  Stopping criterion = energy tolerance
  Energy initial, next-to-last, final =
  Force two-norm initial, final = 3.62738e-05 3.0305e-05
  Force max component initial, final = 1.07771e-05 9.02039e-06
  Final line search alpha, max atom move = 0 0
  Iterations, force evaluations = 55 55

variable        AtomMinStep equal 57927
variable        temppe     equal $(pe)
variable        temppe     equal 1838.4050219949101574
variable        min_E      equal abs(1838.40502199503-1838.40502199491)
jump SELF break_min
undump          NiPyC2_relax_sc211_meta_functionalized_N-2CH3_xyzmov

# Dump last snapshot for restart
variable curr_lx equal lx
variable curr_ly equal ly
variable curr_lz equal lz
change_box all x final 0 14.1599056464959 y final 0 10.6061022115595 z final 0 10.7239694229603
  triclinic box = (0 0.958649 -0.224845) to (14.1599 11.5648 10.4991) with tilt (0 -0.237555 0)
  triclinic box = (0 0 -0.224845) to (14.1599 10.6061 10.4991) with tilt (0 -0.237555 0)
  triclinic box = (0 0 0) to (14.1599 10.6061 10.724) with tilt (0 -0.237555 0)

reset_timestep 0
dump            NiPyC2_relax_sc211_meta_functionalized_N-2CH3_restart all atom 1 NiPyC2_relax_sc211_meta_functionalized_N-2CH3_restart.lammpstrj
dump_modify     NiPyC2_relax_sc211_meta_functionalized_N-2CH3_restart scale no sort id
run 0
Step Temp E_pair E_mol TotEng Press
0 6.6058544e-11    132.74676    1705.6583     1838.405   -550.77538
Loop time of 8.08999e-07 on 1 procs for 0 steps with 172 atoms

undump          NiPyC2_relax_sc211_meta_functionalized_N-2CH3_restart
