units           real
atom_style      full
boundary        p p p

pair_style      lj/cut 5.000
bond_style      harmonic
angle_style     hybrid cosine/periodic fourier
dihedral_style  harmonic
improper_style  fourier

dielectric      1.0
special_bonds   lj/coul 0.0 0.0 1.0
pair_modify     tail yes mix arithmetic
box tilt        large
read_data       data.NiPyC2_relax_sc211_ortho_functionalized_N-2CH3
  triclinic box = (0 0 0) to (12.5056 12.5234 10.2743) with tilt (0 -0.227594 0)
  reading atoms ...
  172 atoms
  scanning bonds ...
  scanning angles ...
  scanning dihedrals ...
  scanning impropers ...
  reading bonds ...
  192 bonds
  reading angles ...
  364 angles
  reading dihedrals ...
  384 dihedrals
  reading impropers ...
  192 impropers

#### Atom Groupings ####
group           fram     id   1:172
172 atoms in group fram
#### END Atom Groupings ####

dump            NiPyC2_relax_sc211_ortho_functionalized_N-2CH3_xyzmov all xyz 20000 NiPyC2_relax_sc211_ortho_functionalized_N-2CH3_mov.xyz
dump_modify     NiPyC2_relax_sc211_ortho_functionalized_N-2CH3_xyzmov element Ni O N C H N C
min_style       cg
print           "MinStep,CellMinStep,AtomMinStep,FinalStep,Energy,EDiff" file NiPyC2_relax_sc211_ortho_functionalized_N-2CH3.min.csv screen no
variable        min_eval   equal 1.00e-06
variable        prev_E     equal 50000.00
variable        iter       loop 100000
label           loop_min
min_style       cg
fix             1 all box/relax aniso 0.0 vmax 0.01
minimize        1.0e-15 1.0e-15 10000 100000
  update every 1 steps, delay 0 steps, check yes
Step Temp E_pair E_mol TotEng Press Volume
0            0     95837675    2387.0457     95840062 1.6336856e+10    1609.0819
Loop time of 0.25323 on 1 procs for 614 steps with 172 atoms

Minimization stats:
  Stopping criterion = linesearch alpha is zero
  Energy initial, next-to-last, final =
  Force two-norm initial, final = 2.10426e+09 60.5321
  Force max component initial, final = 1.02464e+09 48.5143
  Final line search alpha, max atom move = 2.28425e-12 1.10819e-10
  Iterations, force evaluations = 614 1078

unfix           1
min_style       fire
variable        tempstp    equal $(step)
variable        tempstp    equal 614
variable        CellMinStep equal 614
minimize        1.0e-15 1.0e-15 10000 100000
  Parameters for fire:
    dmax delaystep dtgrow dtshrink alpha0 alphashrink tmax tmin    integrator halfstepback
     0.1        20    1.1      0.5   0.25        0.99   10 0.02 eulerimplicit          yes
Step Temp E_pair E_mol TotEng Press
614            0     143.6713    1739.7693    1883.4406   -627.05555
Loop time of 1.47366 on 1 procs for 7350 steps with 172 atoms

Minimization stats:
  Stopping criterion = energy tolerance
  Energy initial, next-to-last, final =
  Force two-norm initial, final = 33.4042 4.85931e-05
  Force max component initial, final = 5.1846 1.49345e-05
  Final line search alpha, max atom move = 0 0
  Iterations, force evaluations = 7350 7350

variable        AtomMinStep equal 614
variable        temppe     equal $(pe)
variable        temppe     equal 1865.4999170054804836
variable        min_E      equal abs(50000-1865.49991700548)
variable        prev_E     equal 1865.49991700548
next            iter
jump            SELF loop_min
min_style       cg
fix             1 all box/relax aniso 0.0 vmax 0.01
minimize        1.0e-15 1.0e-15 10000 100000
Step Temp E_pair E_mol TotEng Press Volume
7964 1.4518499e-10    125.81518    1739.6847    1865.4999    -5216.548    1741.9073
Loop time of 0.0141533 on 1 procs for 2 steps with 172 atoms

Minimization stats:
  Stopping criterion = linesearch alpha is zero
  Energy initial, next-to-last, final =
  Force two-norm initial, final = 356.852 45.7422
  Force max component initial, final = 336.04 38.1555
  Final line search alpha, max atom move = 3.85367e-12 1.47039e-10
  Iterations, force evaluations = 2 55

unfix           1
min_style       fire
variable        tempstp    equal $(step)
variable        tempstp    equal 7966
variable        CellMinStep equal 7966
minimize        1.0e-15 1.0e-15 10000 100000
  Parameters for fire:
    dmax delaystep dtgrow dtshrink alpha0 alphashrink tmax tmin    integrator halfstepback
     0.1        20    1.1      0.5   0.25        0.99   10 0.02 eulerimplicit          yes
Step Temp E_pair E_mol TotEng Press
7966            0    131.07272    1733.9373      1865.01    465.06207
Loop time of 1.40396 on 1 procs for 7002 steps with 172 atoms

Minimization stats:
  Stopping criterion = energy tolerance
  Energy initial, next-to-last, final =
  Force two-norm initial, final = 22.6998 4.16273e-05
  Force max component initial, final = 4.46543 1.37903e-05
  Final line search alpha, max atom move = 0 0
  Iterations, force evaluations = 7002 7002

variable        AtomMinStep equal 7966
variable        temppe     equal $(pe)
variable        temppe     equal 1864.7713711445339868
variable        min_E      equal abs(1865.49991700548-1864.77137114453)
variable        prev_E     equal 1864.77137114453
next            iter
jump            SELF loop_min
min_style       cg
fix             1 all box/relax aniso 0.0 vmax 0.01
minimize        1.0e-15 1.0e-15 10000 100000
Step Temp E_pair E_mol TotEng Press Volume
14968 1.230223e-10    129.21227    1735.5591    1864.7714   -3317.7813     1736.583
Loop time of 0.0141079 on 1 procs for 2 steps with 172 atoms

Minimization stats:
  Stopping criterion = linesearch alpha is zero
  Energy initial, next-to-last, final =
  Force two-norm initial, final = 282.38 36.8877
  Force max component initial, final = 261.076 30.4537
  Final line search alpha, max atom move = 4.75351e-12 1.44762e-10
  Iterations, force evaluations = 2 55

unfix           1
min_style       fire
variable        tempstp    equal $(step)
variable        tempstp    equal 14970
variable        CellMinStep equal 14970
minimize        1.0e-15 1.0e-15 10000 100000
  Parameters for fire:
    dmax delaystep dtgrow dtshrink alpha0 alphashrink tmax tmin    integrator halfstepback
     0.1        20    1.1      0.5   0.25        0.99   10 0.02 eulerimplicit          yes
Step Temp E_pair E_mol TotEng Press
14970            0    132.73348    1731.6807    1864.4142    467.00557
Loop time of 2.02197 on 1 procs for 10000 steps with 172 atoms

Minimization stats:
  Stopping criterion = max iterations
  Energy initial, next-to-last, final =
  Force two-norm initial, final = 18.6339 0.00110151
  Force max component initial, final = 3.54869 0.000251003
  Final line search alpha, max atom move = 0 0
  Iterations, force evaluations = 10000 10000

variable        AtomMinStep equal 14970
variable        temppe     equal $(pe)
variable        temppe     equal 1863.3860276936484297
variable        min_E      equal abs(1864.77137114453-1863.38602769365)
variable        prev_E     equal 1863.38602769365
next            iter
jump            SELF loop_min
min_style       cg
fix             1 all box/relax aniso 0.0 vmax 0.01
minimize        1.0e-15 1.0e-15 10000 100000
Step Temp E_pair E_mol TotEng Press Volume
24970 3.1767621e-08    126.08626    1737.2998     1863.386   -3575.3828    1733.1055
Loop time of 0.0142852 on 1 procs for 2 steps with 172 atoms

Minimization stats:
  Stopping criterion = linesearch alpha is zero
  Energy initial, next-to-last, final =
  Force two-norm initial, final = 278.151 44.0948
  Force max component initial, final = 245.889 32.5324
  Final line search alpha, max atom move = 4.38011e-12 1.42496e-10
  Iterations, force evaluations = 2 55

unfix           1
min_style       fire
variable        tempstp    equal $(step)
variable        tempstp    equal 24972
variable        CellMinStep equal 24972
minimize        1.0e-15 1.0e-15 10000 100000
  Parameters for fire:
    dmax delaystep dtgrow dtshrink alpha0 alphashrink tmax tmin    integrator halfstepback
     0.1        20    1.1      0.5   0.25        0.99   10 0.02 eulerimplicit          yes
Step Temp E_pair E_mol TotEng Press
24972            0    129.83812    1733.1803    1863.0184    408.06186
Loop time of 0.577364 on 1 procs for 2823 steps with 172 atoms

Minimization stats:
  Stopping criterion = energy tolerance
  Energy initial, next-to-last, final =
  Force two-norm initial, final = 18.199 4.24924e-05
  Force max component initial, final = 3.50046 8.22199e-06
  Final line search alpha, max atom move = 0 0
  Iterations, force evaluations = 2823 2823

variable        AtomMinStep equal 24972
variable        temppe     equal $(pe)
variable        temppe     equal 1862.7333703335420978
variable        min_E      equal abs(1863.38602769365-1862.73337033354)
variable        prev_E     equal 1862.73337033354
next            iter
jump            SELF loop_min
min_style       cg
fix             1 all box/relax aniso 0.0 vmax 0.01
minimize        1.0e-15 1.0e-15 10000 100000
Step Temp E_pair E_mol TotEng Press Volume
27795 1.1838972e-10    128.32945    1734.4039    1862.7334   -2248.8792    1729.3179
Loop time of 0.0138466 on 1 procs for 3 steps with 172 atoms

Minimization stats:
  Stopping criterion = linesearch alpha is zero
  Energy initial, next-to-last, final =
  Force two-norm initial, final = 221.886 21.0537
  Force max component initial, final = 187.486 11.6694
  Final line search alpha, max atom move = 2.25328e-11 2.62944e-10
  Iterations, force evaluations = 3 55

unfix           1
min_style       fire
variable        tempstp    equal $(step)
variable        tempstp    equal 27798
variable        CellMinStep equal 27798
minimize        1.0e-15 1.0e-15 10000 100000
  Parameters for fire:
    dmax delaystep dtgrow dtshrink alpha0 alphashrink tmax tmin    integrator halfstepback
     0.1        20    1.1      0.5   0.25        0.99   10 0.02 eulerimplicit          yes
Step Temp E_pair E_mol TotEng Press
27798            0     130.4123    1732.1012    1862.5135   -309.11813
Loop time of 0.544467 on 1 procs for 2670 steps with 172 atoms

Minimization stats:
  Stopping criterion = energy tolerance
  Energy initial, next-to-last, final =
  Force two-norm initial, final = 15.2439 4.81009e-05
  Force max component initial, final = 2.49828 1.00814e-05
  Final line search alpha, max atom move = 0 0
  Iterations, force evaluations = 2670 2670

variable        AtomMinStep equal 27798
variable        temppe     equal $(pe)
variable        temppe     equal 1862.303456156789025
variable        min_E      equal abs(1862.73337033354-1862.30345615679)
variable        prev_E     equal 1862.30345615679
next            iter
jump            SELF loop_min
min_style       cg
fix             1 all box/relax aniso 0.0 vmax 0.01
minimize        1.0e-15 1.0e-15 10000 100000
Step Temp E_pair E_mol TotEng Press Volume
30468 1.5784253e-10    129.63297    1732.6705    1862.3035   -1627.5002    1727.3573
Loop time of 0.0125731 on 1 procs for 2 steps with 172 atoms

Minimization stats:
  Stopping criterion = linesearch alpha is zero
  Energy initial, next-to-last, final =
  Force two-norm initial, final = 182.989 28.6381
  Force max component initial, final = 149.353 18.0889
  Final line search alpha, max atom move = 1.50883e-11 2.7293e-10
  Iterations, force evaluations = 2 53

unfix           1
min_style       fire
variable        tempstp    equal $(step)
variable        tempstp    equal 30470
variable        CellMinStep equal 30470
minimize        1.0e-15 1.0e-15 10000 100000
  Parameters for fire:
    dmax delaystep dtgrow dtshrink alpha0 alphashrink tmax tmin    integrator halfstepback
     0.1        20    1.1      0.5   0.25        0.99   10 0.02 eulerimplicit          yes
Step Temp E_pair E_mol TotEng Press
30470            0       131.53     1730.616     1862.146    270.51027
Loop time of 0.54582 on 1 procs for 2666 steps with 172 atoms

Minimization stats:
  Stopping criterion = energy tolerance
  Energy initial, next-to-last, final =
  Force two-norm initial, final = 12.5618 4.03202e-05
  Force max component initial, final = 2.22312 7.20217e-06
  Final line search alpha, max atom move = 0 0
  Iterations, force evaluations = 2666 2666

variable        AtomMinStep equal 30470
variable        temppe     equal $(pe)
variable        temppe     equal 1862.1046690829475665
variable        min_E      equal abs(1862.30345615679-1862.10466908295)
variable        prev_E     equal 1862.10466908295
next            iter
jump            SELF loop_min
min_style       cg
fix             1 all box/relax aniso 0.0 vmax 0.01
minimize        1.0e-15 1.0e-15 10000 100000
Step Temp E_pair E_mol TotEng Press Volume
33136 1.1383555e-10    130.93334    1731.1713    1862.1047   -1023.6187    1725.5606
Loop time of 0.0131521 on 1 procs for 3 steps with 172 atoms

Minimization stats:
  Stopping criterion = linesearch alpha is zero
  Energy initial, next-to-last, final =
  Force two-norm initial, final = 151.352 15.4314
  Force max component initial, final = 115.152 8.40123
  Final line search alpha, max atom move = 2.93902e-11 2.46913e-10
  Iterations, force evaluations = 3 55

unfix           1
min_style       fire
variable        tempstp    equal $(step)
variable        tempstp    equal 33139
variable        CellMinStep equal 33139
minimize        1.0e-15 1.0e-15 10000 100000
  Parameters for fire:
    dmax delaystep dtgrow dtshrink alpha0 alphashrink tmax tmin    integrator halfstepback
     0.1        20    1.1      0.5   0.25        0.99   10 0.02 eulerimplicit          yes
Step Temp E_pair E_mol TotEng Press
33139            0    131.88415    1730.0745    1861.9587   -245.53865
Loop time of 0.508088 on 1 procs for 2484 steps with 172 atoms

Minimization stats:
  Stopping criterion = energy tolerance
  Energy initial, next-to-last, final =
  Force two-norm initial, final = 10.7772 4.26151e-05
  Force max component initial, final = 1.53373 8.31785e-06
  Final line search alpha, max atom move = 0 0
  Iterations, force evaluations = 2484 2484

variable        AtomMinStep equal 33139
variable        temppe     equal $(pe)
variable        temppe     equal 1861.9261678995017064
variable        min_E      equal abs(1862.10466908295-1861.9261678995)
variable        prev_E     equal 1861.9261678995
next            iter
jump            SELF loop_min
min_style       cg
fix             1 all box/relax aniso 0.0 vmax 0.01
minimize        1.0e-15 1.0e-15 10000 100000
Step Temp E_pair E_mol TotEng Press Volume
35623 1.4768869e-10    131.62776    1730.2984    1861.9262   -795.61624    1724.7009
Loop time of 0.0189305 on 1 procs for 10 steps with 172 atoms

Minimization stats:
  Stopping criterion = linesearch alpha is zero
  Energy initial, next-to-last, final =
  Force two-norm initial, final = 127.654 35.8814
  Force max component initial, final = 93.517 25.4073
  Final line search alpha, max atom move = 8.2434e-12 2.09442e-10
  Iterations, force evaluations = 10 75

unfix           1
min_style       fire
variable        tempstp    equal $(step)
variable        tempstp    equal 35633
variable        CellMinStep equal 35633
minimize        1.0e-15 1.0e-15 10000 100000
  Parameters for fire:
    dmax delaystep dtgrow dtshrink alpha0 alphashrink tmax tmin    integrator halfstepback
     0.1        20    1.1      0.5   0.25        0.99   10 0.02 eulerimplicit          yes
Step Temp E_pair E_mol TotEng Press
35633            0    134.03368     1727.743    1861.7767   -81.447026
Loop time of 0.61923 on 1 procs for 2970 steps with 172 atoms

Minimization stats:
  Stopping criterion = energy tolerance
  Energy initial, next-to-last, final =
  Force two-norm initial, final = 8.70524 3.77816e-05
  Force max component initial, final = 1.32025 6.77914e-06
  Final line search alpha, max atom move = 0 0
  Iterations, force evaluations = 2970 2970

variable        AtomMinStep equal 35633
variable        temppe     equal $(pe)
variable        temppe     equal 1861.6813392331291652
variable        min_E      equal abs(1861.9261678995-1861.68133923313)
variable        prev_E     equal 1861.68133923313
next            iter
jump            SELF loop_min
min_style       cg
fix             1 all box/relax aniso 0.0 vmax 0.01
minimize        1.0e-15 1.0e-15 10000 100000
Step Temp E_pair E_mol TotEng Press Volume
38603 9.0495405e-11    132.92238     1728.759    1861.6813   -323.75052    1722.8419
Loop time of 0.0135598 on 1 procs for 2 steps with 172 atoms

Minimization stats:
  Stopping criterion = linesearch alpha is zero
  Energy initial, next-to-last, final =
  Force two-norm initial, final = 84.1002 13.3346
  Force max component initial, final = 57.5829 8.08946
  Final line search alpha, max atom move = 6.86645e-11 5.55458e-10
  Iterations, force evaluations = 2 51

unfix           1
min_style       fire
variable        tempstp    equal $(step)
variable        tempstp    equal 38605
variable        CellMinStep equal 38605
minimize        1.0e-15 1.0e-15 10000 100000
  Parameters for fire:
    dmax delaystep dtgrow dtshrink alpha0 alphashrink tmax tmin    integrator halfstepback
     0.1        20    1.1      0.5   0.25        0.99   10 0.02 eulerimplicit          yes
Step Temp E_pair E_mol TotEng Press
38605            0    133.39497    1728.2554    1861.6503    47.988058
Loop time of 0.470596 on 1 procs for 2288 steps with 172 atoms

Minimization stats:
  Stopping criterion = energy tolerance
  Energy initial, next-to-last, final =
  Force two-norm initial, final = 6.07553 3.80166e-05
  Force max component initial, final = 0.883924 7.26114e-06
  Final line search alpha, max atom move = 0 0
  Iterations, force evaluations = 2288 2288

variable        AtomMinStep equal 38605
variable        temppe     equal $(pe)
variable        temppe     equal 1861.6093309626701284
variable        min_E      equal abs(1861.68133923313-1861.60933096267)
variable        prev_E     equal 1861.60933096267
next            iter
jump            SELF loop_min
min_style       cg
fix             1 all box/relax aniso 0.0 vmax 0.01
minimize        1.0e-15 1.0e-15 10000 100000
Step Temp E_pair E_mol TotEng Press Volume
40893 1.014226e-10    133.26094    1728.3484    1861.6093   -231.06042    1722.4642
Loop time of 0.0133238 on 1 procs for 2 steps with 172 atoms

Minimization stats:
  Stopping criterion = linesearch alpha is zero
  Energy initial, next-to-last, final =
  Force two-norm initial, final = 71.493 12.2547
  Force max component initial, final = 50.9963 8.07935
  Final line search alpha, max atom move = 6.78586e-11 5.48253e-10
  Iterations, force evaluations = 2 51

unfix           1
min_style       fire
variable        tempstp    equal $(step)
variable        tempstp    equal 40895
variable        CellMinStep equal 40895
minimize        1.0e-15 1.0e-15 10000 100000
  Parameters for fire:
    dmax delaystep dtgrow dtshrink alpha0 alphashrink tmax tmin    integrator halfstepback
     0.1        20    1.1      0.5   0.25        0.99   10 0.02 eulerimplicit          yes
Step Temp E_pair E_mol TotEng Press
40895            0    133.61226    1727.9694    1861.5817    19.362753
Loop time of 0.467363 on 1 procs for 2267 steps with 172 atoms

Minimization stats:
  Stopping criterion = energy tolerance
  Energy initial, next-to-last, final =
  Force two-norm initial, final = 5.23157 3.56027e-05
  Force max component initial, final = 0.733898 6.55024e-06
  Final line search alpha, max atom move = 0 0
  Iterations, force evaluations = 2267 2267

variable        AtomMinStep equal 40895
variable        temppe     equal $(pe)
variable        temppe     equal 1861.5568233103008424
variable        min_E      equal abs(1861.60933096267-1861.5568233103)
variable        prev_E     equal 1861.5568233103
next            iter
jump            SELF loop_min
min_style       cg
fix             1 all box/relax aniso 0.0 vmax 0.01
minimize        1.0e-15 1.0e-15 10000 100000
Step Temp E_pair E_mol TotEng Press Volume
43162 8.0154113e-11    133.51483     1728.042    1861.5568    -175.6551    1722.1898
Loop time of 0.0123461 on 1 procs for 2 steps with 172 atoms

Minimization stats:
  Stopping criterion = linesearch alpha is zero
  Energy initial, next-to-last, final =
  Force two-norm initial, final = 61.0915 11.4274
  Force max component initial, final = 44.7029 8.00085
  Final line search alpha, max atom move = 6.78842e-11 5.43131e-10
  Iterations, force evaluations = 2 51

unfix           1
min_style       fire
variable        tempstp    equal $(step)
variable        tempstp    equal 43164
variable        CellMinStep equal 43164
minimize        1.0e-15 1.0e-15 10000 100000
  Parameters for fire:
    dmax delaystep dtgrow dtshrink alpha0 alphashrink tmax tmin    integrator halfstepback
     0.1        20    1.1      0.5   0.25        0.99   10 0.02 eulerimplicit          yes
Step Temp E_pair E_mol TotEng Press
43164            0    133.75538    1727.7431    1861.4985   -3.2158441
Loop time of 0.440663 on 1 procs for 2152 steps with 172 atoms

Minimization stats:
  Stopping criterion = energy tolerance
  Energy initial, next-to-last, final =
  Force two-norm initial, final = 4.53821 4.17099e-05
  Force max component initial, final = 0.645755 7.63993e-06
  Final line search alpha, max atom move = 0 0
  Iterations, force evaluations = 2152 2152

variable        AtomMinStep equal 43164
variable        temppe     equal $(pe)
variable        temppe     equal 1861.4956572539542776
variable        min_E      equal abs(1861.5568233103-1861.49565725395)
variable        prev_E     equal 1861.49565725395
next            iter
jump            SELF loop_min
min_style       cg
fix             1 all box/relax aniso 0.0 vmax 0.01
minimize        1.0e-15 1.0e-15 10000 100000
Step Temp E_pair E_mol TotEng Press Volume
45316 1.501604e-10     133.6881    1727.8076    1861.4957   -143.57113    1721.9769
Loop time of 0.0130696 on 1 procs for 2 steps with 172 atoms

Minimization stats:
  Stopping criterion = linesearch alpha is zero
  Energy initial, next-to-last, final =
  Force two-norm initial, final = 52.5305 10.8881
  Force max component initial, final = 38.9075 7.71099
  Final line search alpha, max atom move = 6.87027e-11 5.29766e-10
  Iterations, force evaluations = 2 51

unfix           1
min_style       fire
variable        tempstp    equal $(step)
variable        tempstp    equal 45318
variable        CellMinStep equal 45318
minimize        1.0e-15 1.0e-15 10000 100000
  Parameters for fire:
    dmax delaystep dtgrow dtshrink alpha0 alphashrink tmax tmin    integrator halfstepback
     0.1        20    1.1      0.5   0.25        0.99   10 0.02 eulerimplicit          yes
Step Temp E_pair E_mol TotEng Press
45318            0    133.91985    1727.5593    1861.4791   -13.562306
Loop time of 0.435603 on 1 procs for 2113 steps with 172 atoms

Minimization stats:
  Stopping criterion = energy tolerance
  Energy initial, next-to-last, final =
  Force two-norm initial, final = 3.96938 3.85299e-05
  Force max component initial, final = 0.567937 7.91395e-06
  Final line search alpha, max atom move = 0 0
  Iterations, force evaluations = 2113 2113

variable        AtomMinStep equal 45318
variable        temppe     equal $(pe)
variable        temppe     equal 1861.4678197369057671
variable        min_E      equal abs(1861.49565725395-1861.46781973691)
variable        prev_E     equal 1861.46781973691
next            iter
jump            SELF loop_min
min_style       cg
fix             1 all box/relax aniso 0.0 vmax 0.01
minimize        1.0e-15 1.0e-15 10000 100000
Step Temp E_pair E_mol TotEng Press Volume
47431 1.0374771e-10    133.85588    1727.6119    1861.4678   -115.16563    1721.7989
Loop time of 0.0185906 on 1 procs for 1 steps with 172 atoms

Minimization stats:
  Stopping criterion = linesearch alpha is zero
  Energy initial, next-to-last, final =
  Force two-norm initial, final = 45.2863 45.2863
  Force max component initial, final = 33.8544 33.8544
  Final line search alpha, max atom move = 4.40154e-12 1.49012e-10
  Iterations, force evaluations = 1 53

unfix           1
min_style       fire
variable        tempstp    equal $(step)
variable        tempstp    equal 47432
variable        CellMinStep equal 47432
minimize        1.0e-15 1.0e-15 10000 100000
  Parameters for fire:
    dmax delaystep dtgrow dtshrink alpha0 alphashrink tmax tmin    integrator halfstepback
     0.1        20    1.1      0.5   0.25        0.99   10 0.02 eulerimplicit          yes
Step Temp E_pair E_mol TotEng Press
47432            0    133.85588    1727.6119    1861.4678   -115.16563
Loop time of 0.0132982 on 1 procs for 54 steps with 172 atoms

Minimization stats:
  Stopping criterion = energy tolerance
  Energy initial, next-to-last, final =
  Force two-norm initial, final = 3.85299e-05 3.36239e-05
  Force max component initial, final = 7.91395e-06 6.91807e-06
  Final line search alpha, max atom move = 0 0
  Iterations, force evaluations = 54 54

variable        AtomMinStep equal 47432
variable        temppe     equal $(pe)
variable        temppe     equal 1861.4678197367691155
variable        min_E      equal abs(1861.46781973691-1861.46781973677)
jump SELF break_min
undump          NiPyC2_relax_sc211_ortho_functionalized_N-2CH3_xyzmov

# Dump last snapshot for restart
variable curr_lx equal lx
variable curr_ly equal ly
variable curr_lz equal lz
change_box all x final 0 15.8992126919493 y final 0 10.280874267252 z final 0 10.5335982782709
  triclinic box = (0 1.12126 -0.12966) to (15.8992 11.4021 10.4039) with tilt (0 -0.233338 0)
  triclinic box = (0 0 -0.12966) to (15.8992 10.2809 10.4039) with tilt (0 -0.233338 0)
  triclinic box = (0 0 0) to (15.8992 10.2809 10.5336) with tilt (0 -0.233338 0)

reset_timestep 0
dump            NiPyC2_relax_sc211_ortho_functionalized_N-2CH3_restart all atom 1 NiPyC2_relax_sc211_ortho_functionalized_N-2CH3_restart.lammpstrj
dump_modify     NiPyC2_relax_sc211_ortho_functionalized_N-2CH3_restart scale no sort id
run 0
Step Temp E_pair E_mol TotEng Press
0 7.1298886e-11    133.85587     1727.612    1861.4678   -115.16865
Loop time of 8.48988e-07 on 1 procs for 0 steps with 172 atoms

undump          NiPyC2_relax_sc211_ortho_functionalized_N-2CH3_restart
