units           real
atom_style      full
boundary        p p p

pair_style      lj/cut 5.000
bond_style      harmonic
angle_style     cosine/periodic
dihedral_style  harmonic
improper_style  fourier

dielectric      1.0
pair_modify     tail yes mix arithmetic
special_bonds   lj/coul 0.0 0.0 1.0
box tilt        large
read_data       data.NiPyC2_relax_sc211_meta_functionalized_F
  triclinic box = (0 0 0) to (12.5056 12.5234 10.2743) with tilt (0 -0.227594 0)
  reading atoms ...
  108 atoms
  scanning bonds ...
  scanning angles ...
  scanning dihedrals ...
  scanning impropers ...
  reading bonds ...
  128 bonds
  reading angles ...
  244 angles
  reading dihedrals ...
  256 dihedrals
  reading impropers ...
  168 impropers

#### Atom Groupings ####
group           fram     id   1:108
108 atoms in group fram
#### END Atom Groupings ####

dump            NiPyC2_relax_sc211_meta_functionalized_F_xyzmov all xyz 20000 NiPyC2_relax_sc211_meta_functionalized_F_mov.xyz
dump_modify     NiPyC2_relax_sc211_meta_functionalized_F_xyzmov element Ni O N C H F
min_style       cg
print           "MinStep,CellMinStep,AtomMinStep,FinalStep,Energy,EDiff" file NiPyC2_relax_sc211_meta_functionalized_F.min.csv screen no
variable        min_eval   equal 1.00e-06
variable        prev_E     equal 50000.00
variable        iter       loop 100000
label           loop_min
min_style       cg
fix             1 all box/relax aniso 0.0 vmax 0.01
minimize        1.0e-15 1.0e-15 10000 100000
  update every 1 steps, delay 0 steps, check yes
Step Temp E_pair E_mol TotEng Press Volume
0            0    84.494536    2197.8298    2282.3243   -72867.527    1609.0819
Loop time of 0.0339561 on 1 procs for 89 steps with 108 atoms

Minimization stats:
  Stopping criterion = linesearch alpha is zero
  Energy initial, next-to-last, final =
  Force two-norm initial, final = 4044.42 33.23
  Force max component initial, final = 3389.53 15.9975
  Final line search alpha, max atom move = 9.01995e-12 1.44297e-10
  Iterations, force evaluations = 89 212

unfix           1
min_style       fire
variable        tempstp    equal $(step)
variable        tempstp    equal 89
variable        CellMinStep equal 89
minimize        1.0e-15 1.0e-15 10000 100000
  Parameters for fire:
    dmax delaystep dtgrow dtshrink alpha0 alphashrink tmax tmin    integrator halfstepback
     0.1        20    1.1      0.5   0.25        0.99   10 0.02 eulerimplicit          yes
Step Temp E_pair E_mol TotEng Press
89            0    76.232442    1412.8869    1489.1194    400.18834
Loop time of 0.468876 on 1 procs for 4346 steps with 108 atoms

Minimization stats:
  Stopping criterion = energy tolerance
  Energy initial, next-to-last, final =
  Force two-norm initial, final = 28.2982 0.00140882
  Force max component initial, final = 5.90204 0.000316396
  Final line search alpha, max atom move = 0 0
  Iterations, force evaluations = 4346 4346

variable        AtomMinStep equal 89
variable        temppe     equal $(pe)
variable        temppe     equal 1486.0409827170774406
variable        min_E      equal abs(50000-1486.04098271708)
variable        prev_E     equal 1486.04098271708
next            iter
jump            SELF loop_min
min_style       cg
fix             1 all box/relax aniso 0.0 vmax 0.01
minimize        1.0e-15 1.0e-15 10000 100000
Step Temp E_pair E_mol TotEng Press Volume
4435 3.8471659e-09     70.59945    1415.4415     1486.041   -3144.3382    1490.3658
Loop time of 0.00730198 on 1 procs for 3 steps with 108 atoms

Minimization stats:
  Stopping criterion = linesearch alpha is zero
  Energy initial, next-to-last, final =
  Force two-norm initial, final = 128.564 19.3484
  Force max component initial, final = 91.7989 15.3273
  Final line search alpha, max atom move = 2.45697e-11 3.76587e-10
  Iterations, force evaluations = 3 55

unfix           1
min_style       fire
variable        tempstp    equal $(step)
variable        tempstp    equal 4438
variable        CellMinStep equal 4438
minimize        1.0e-15 1.0e-15 10000 100000
  Parameters for fire:
    dmax delaystep dtgrow dtshrink alpha0 alphashrink tmax tmin    integrator halfstepback
     0.1        20    1.1      0.5   0.25        0.99   10 0.02 eulerimplicit          yes
Step Temp E_pair E_mol TotEng Press
4438            0    72.790986    1413.1922    1485.9832   -189.11579
Loop time of 0.300674 on 1 procs for 2803 steps with 108 atoms

Minimization stats:
  Stopping criterion = energy tolerance
  Energy initial, next-to-last, final =
  Force two-norm initial, final = 8.56128 6.02233e-05
  Force max component initial, final = 1.33224 2.64404e-05
  Final line search alpha, max atom move = 0 0
  Iterations, force evaluations = 2803 2803

variable        AtomMinStep equal 4438
variable        temppe     equal $(pe)
variable        temppe     equal 1485.9272209051378013
variable        min_E      equal abs(1486.04098271708-1485.92722090514)
variable        prev_E     equal 1485.92722090514
next            iter
jump            SELF loop_min
min_style       cg
fix             1 all box/relax aniso 0.0 vmax 0.01
minimize        1.0e-15 1.0e-15 10000 100000
Step Temp E_pair E_mol TotEng Press Volume
7241 1.1227034e-10    72.110505    1413.8167    1485.9272   -1290.5321    1486.2909
Loop time of 0.00715845 on 1 procs for 1 steps with 108 atoms

Minimization stats:
  Stopping criterion = linesearch alpha is zero
  Energy initial, next-to-last, final =
  Force two-norm initial, final = 55.6337 55.6337
  Force max component initial, final = 46.9116 46.9116
  Final line search alpha, max atom move = 3.17643e-12 1.49012e-10
  Iterations, force evaluations = 1 53

unfix           1
min_style       fire
variable        tempstp    equal $(step)
variable        tempstp    equal 7242
variable        CellMinStep equal 7242
minimize        1.0e-15 1.0e-15 10000 100000
  Parameters for fire:
    dmax delaystep dtgrow dtshrink alpha0 alphashrink tmax tmin    integrator halfstepback
     0.1        20    1.1      0.5   0.25        0.99   10 0.02 eulerimplicit          yes
Step Temp E_pair E_mol TotEng Press
7242            0    72.110505    1413.8167    1485.9272   -1290.5321
Loop time of 0.00684075 on 1 procs for 58 steps with 108 atoms

Minimization stats:
  Stopping criterion = energy tolerance
  Energy initial, next-to-last, final =
  Force two-norm initial, final = 6.02233e-05 5.46301e-05
  Force max component initial, final = 2.64404e-05 2.37294e-05
  Final line search alpha, max atom move = 0 0
  Iterations, force evaluations = 58 58

variable        AtomMinStep equal 7242
variable        temppe     equal $(pe)
variable        temppe     equal 1485.9272209049879621
variable        min_E      equal abs(1485.92722090514-1485.92722090499)
jump SELF break_min
undump          NiPyC2_relax_sc211_meta_functionalized_F_xyzmov

# Dump last snapshot for restart
variable curr_lx equal lx
variable curr_ly equal ly
variable curr_lz equal lz
change_box all x final 0 13.1794914951086 y final 0 10.379699905459 z final 0 10.8647661069606
  triclinic box = (0 1.07185 -0.295244) to (13.1795 11.4515 10.5695) with tilt (0 -0.240674 0)
  triclinic box = (0 0 -0.295244) to (13.1795 10.3797 10.5695) with tilt (0 -0.240674 0)
  triclinic box = (0 0 0) to (13.1795 10.3797 10.8648) with tilt (0 -0.240674 0)

reset_timestep 0
dump            NiPyC2_relax_sc211_meta_functionalized_F_restart all atom 1 NiPyC2_relax_sc211_meta_functionalized_F_restart.lammpstrj
dump_modify     NiPyC2_relax_sc211_meta_functionalized_F_restart scale no sort id
run 0
Step Temp E_pair E_mol TotEng Press
0 2.1880176e-11    72.110503    1413.8167    1485.9272   -1290.5335
Loop time of 8.22009e-07 on 1 procs for 0 steps with 108 atoms

undump          NiPyC2_relax_sc211_meta_functionalized_F_restart
