units           real
atom_style      full
boundary        p p p

pair_style      lj/cut 5.000
bond_style      harmonic
angle_style     cosine/periodic
dihedral_style  harmonic
improper_style  fourier

dielectric      1.0
special_bonds   lj/coul 0.0 0.0 1.0
pair_modify     tail yes mix arithmetic
box tilt        large
read_data       data.NiPyC2_relax_sc211_meta_functionalized_CH-CH2
  triclinic box = (0 0 0) to (12.5056 12.5234 10.2743) with tilt (0 -0.227594 0)
  reading atoms ...
  140 atoms
  scanning bonds ...
  scanning angles ...
  scanning dihedrals ...
  scanning impropers ...
  reading bonds ...
  160 bonds
  reading angles ...
  292 angles
  reading dihedrals ...
  320 dihedrals
  reading impropers ...
  216 impropers

#### Atom Groupings ####
group           fram     id   1:140
140 atoms in group fram
#### END Atom Groupings ####

dump            NiPyC2_relax_sc211_meta_functionalized_CH-CH2_xyzmov all xyz 20000 NiPyC2_relax_sc211_meta_functionalized_CH-CH2_mov.xyz
dump_modify     NiPyC2_relax_sc211_meta_functionalized_CH-CH2_xyzmov element Ni O N C H C
min_style       cg
print           "MinStep,CellMinStep,AtomMinStep,FinalStep,Energy,EDiff" file NiPyC2_relax_sc211_meta_functionalized_CH-CH2.min.csv screen no
variable        min_eval   equal 1.00e-06
variable        prev_E     equal 50000.00
variable        iter       loop 100000
label           loop_min
min_style       cg
fix             1 all box/relax aniso 0.0 vmax 0.01
minimize        1.0e-15 1.0e-15 10000 100000
  update every 1 steps, delay 0 steps, check yes
Step Temp E_pair E_mol TotEng Press Volume
0            0    854780.41    2249.8045    857030.21 1.457149e+08    1609.0819
Loop time of 0.0996055 on 1 procs for 284 steps with 140 atoms

Minimization stats:
  Stopping criterion = linesearch alpha is zero
  Energy initial, next-to-last, final =
  Force two-norm initial, final = 1.58448e+07 92.5156
  Force max component initial, final = 8.43391e+06 79.9333
  Final line search alpha, max atom move = 9.06093e-13 7.24269e-11
  Iterations, force evaluations = 284 505

unfix           1
min_style       fire
variable        tempstp    equal $(step)
variable        tempstp    equal 284
variable        CellMinStep equal 284
minimize        1.0e-15 1.0e-15 10000 100000
  Parameters for fire:
    dmax delaystep dtgrow dtshrink alpha0 alphashrink tmax tmin    integrator halfstepback
     0.1        20    1.1      0.5   0.25        0.99   10 0.02 eulerimplicit          yes
Step Temp E_pair E_mol TotEng Press
284            0    102.02178    1528.7103    1630.7321   -1125.9846
Loop time of 0.598485 on 1 procs for 3750 steps with 140 atoms

Minimization stats:
  Stopping criterion = energy tolerance
  Energy initial, next-to-last, final =
  Force two-norm initial, final = 43.9084 3.44898e-05
  Force max component initial, final = 9.74721 9.28627e-06
  Final line search alpha, max atom move = 0 0
  Iterations, force evaluations = 3750 3750

variable        AtomMinStep equal 284
variable        temppe     equal $(pe)
variable        temppe     equal 1616.6686199679272704
variable        min_E      equal abs(50000-1616.66861996793)
variable        prev_E     equal 1616.66861996793
next            iter
jump            SELF loop_min
min_style       cg
fix             1 all box/relax aniso 0.0 vmax 0.01
minimize        1.0e-15 1.0e-15 10000 100000
Step Temp E_pair E_mol TotEng Press Volume
4034 1.4299581e-10    92.476471    1524.1921    1616.6686   -3686.1502    1552.0572
Loop time of 0.0129329 on 1 procs for 9 steps with 140 atoms

Minimization stats:
  Stopping criterion = linesearch alpha is zero
  Energy initial, next-to-last, final =
  Force two-norm initial, final = 245.381 24.3329
  Force max component initial, final = 245.266 14.8973
  Final line search alpha, max atom move = 1.66575e-11 2.48152e-10
  Iterations, force evaluations = 9 69

unfix           1
min_style       fire
variable        tempstp    equal $(step)
variable        tempstp    equal 4043
variable        CellMinStep equal 4043
minimize        1.0e-15 1.0e-15 10000 100000
  Parameters for fire:
    dmax delaystep dtgrow dtshrink alpha0 alphashrink tmax tmin    integrator halfstepback
     0.1        20    1.1      0.5   0.25        0.99   10 0.02 eulerimplicit          yes
Step Temp E_pair E_mol TotEng Press
4043            0    96.871654     1519.272    1616.1437   -60.109571
Loop time of 0.576609 on 1 procs for 3636 steps with 140 atoms

Minimization stats:
  Stopping criterion = energy tolerance
  Energy initial, next-to-last, final =
  Force two-norm initial, final = 17.639 3.62396e-05
  Force max component initial, final = 2.89003 1.06362e-05
  Final line search alpha, max atom move = 0 0
  Iterations, force evaluations = 3636 3636

variable        AtomMinStep equal 4043
variable        temppe     equal $(pe)
variable        temppe     equal 1615.7878231108538785
variable        min_E      equal abs(1616.66861996793-1615.78782311085)
variable        prev_E     equal 1615.78782311085
next            iter
jump            SELF loop_min
min_style       cg
fix             1 all box/relax aniso 0.0 vmax 0.01
minimize        1.0e-15 1.0e-15 10000 100000
Step Temp E_pair E_mol TotEng Press Volume
7679 9.7460899e-11    94.771391    1521.0164    1615.7878   -1231.7819    1548.4078
Loop time of 0.0130461 on 1 procs for 8 steps with 140 atoms

Minimization stats:
  Stopping criterion = linesearch alpha is zero
  Energy initial, next-to-last, final =
  Force two-norm initial, final = 151.478 25.738
  Force max component initial, final = 143.863 20.0004
  Final line search alpha, max atom move = 1.21369e-11 2.42742e-10
  Iterations, force evaluations = 8 65

unfix           1
min_style       fire
variable        tempstp    equal $(step)
variable        tempstp    equal 7687
variable        CellMinStep equal 7687
minimize        1.0e-15 1.0e-15 10000 100000
  Parameters for fire:
    dmax delaystep dtgrow dtshrink alpha0 alphashrink tmax tmin    integrator halfstepback
     0.1        20    1.1      0.5   0.25        0.99   10 0.02 eulerimplicit          yes
Step Temp E_pair E_mol TotEng Press
7687            0    96.302884    1518.9595    1615.2624    413.69125
Loop time of 0.729235 on 1 procs for 4608 steps with 140 atoms

Minimization stats:
  Stopping criterion = energy tolerance
  Energy initial, next-to-last, final =
  Force two-norm initial, final = 15.0702 3.38413e-05
  Force max component initial, final = 2.60122 1.00887e-05
  Final line search alpha, max atom move = 0 0
  Iterations, force evaluations = 4608 4608

variable        AtomMinStep equal 7687
variable        temppe     equal $(pe)
variable        temppe     equal 1615.0725985042317916
variable        min_E      equal abs(1615.78782311085-1615.07259850423)
variable        prev_E     equal 1615.07259850423
next            iter
jump            SELF loop_min
min_style       cg
fix             1 all box/relax aniso 0.0 vmax 0.01
minimize        1.0e-15 1.0e-15 10000 100000
Step Temp E_pair E_mol TotEng Press Volume
12295 1.0799313e-10    95.108567     1519.964    1615.0726   -461.52767    1547.8034
Loop time of 0.0117381 on 1 procs for 5 steps with 140 atoms

Minimization stats:
  Stopping criterion = linesearch alpha is zero
  Energy initial, next-to-last, final =
  Force two-norm initial, final = 114.619 21.5959
  Force max component initial, final = 101.259 11.0345
  Final line search alpha, max atom move = 2.10878e-11 2.32693e-10
  Iterations, force evaluations = 5 61

unfix           1
min_style       fire
variable        tempstp    equal $(step)
variable        tempstp    equal 12300
variable        CellMinStep equal 12300
minimize        1.0e-15 1.0e-15 10000 100000
  Parameters for fire:
    dmax delaystep dtgrow dtshrink alpha0 alphashrink tmax tmin    integrator halfstepback
     0.1        20    1.1      0.5   0.25        0.99   10 0.02 eulerimplicit          yes
Step Temp E_pair E_mol TotEng Press
12300            0     95.10141    1519.7503    1614.8517   -339.63656
Loop time of 0.678859 on 1 procs for 4294 steps with 140 atoms

Minimization stats:
  Stopping criterion = energy tolerance
  Energy initial, next-to-last, final =
  Force two-norm initial, final = 15.8445 4.25292e-05
  Force max component initial, final = 3.30407 1.31547e-05
  Final line search alpha, max atom move = 0 0
  Iterations, force evaluations = 4294 4294

variable        AtomMinStep equal 12300
variable        temppe     equal $(pe)
variable        temppe     equal 1614.7680799250688324
variable        min_E      equal abs(1615.07259850423-1614.76807992507)
variable        prev_E     equal 1614.76807992507
next            iter
jump            SELF loop_min
min_style       cg
fix             1 all box/relax aniso 0.0 vmax 0.01
minimize        1.0e-15 1.0e-15 10000 100000
Step Temp E_pair E_mol TotEng Press Volume
16594 1.4069822e-10    94.826701    1519.9414    1614.7681   -530.15535    1548.6846
Loop time of 0.0105091 on 1 procs for 3 steps with 140 atoms

Minimization stats:
  Stopping criterion = linesearch alpha is zero
  Energy initial, next-to-last, final =
  Force two-norm initial, final = 99.9347 9.49865
  Force max component initial, final = 90.646 2.44064
  Final line search alpha, max atom move = 1.01884e-10 2.48661e-10
  Iterations, force evaluations = 3 57

unfix           1
min_style       fire
variable        tempstp    equal $(step)
variable        tempstp    equal 16597
variable        CellMinStep equal 16597
minimize        1.0e-15 1.0e-15 10000 100000
  Parameters for fire:
    dmax delaystep dtgrow dtshrink alpha0 alphashrink tmax tmin    integrator halfstepback
     0.1        20    1.1      0.5   0.25        0.99   10 0.02 eulerimplicit          yes
Step Temp E_pair E_mol TotEng Press
16597            0    95.155688    1519.5675    1614.7232    -73.29583
Loop time of 0.697665 on 1 procs for 4441 steps with 140 atoms

Minimization stats:
  Stopping criterion = energy tolerance
  Energy initial, next-to-last, final =
  Force two-norm initial, final = 8.98906 4.1041e-05
  Force max component initial, final = 1.60708 1.28186e-05
  Final line search alpha, max atom move = 0 0
  Iterations, force evaluations = 4441 4441

variable        AtomMinStep equal 16597
variable        temppe     equal $(pe)
variable        temppe     equal 1614.6032549977333019
variable        min_E      equal abs(1614.76807992507-1614.60325499773)
variable        prev_E     equal 1614.60325499773
next            iter
jump            SELF loop_min
min_style       cg
fix             1 all box/relax aniso 0.0 vmax 0.01
minimize        1.0e-15 1.0e-15 10000 100000
Step Temp E_pair E_mol TotEng Press Volume
21038 1.426749e-10    94.838769    1519.7645    1614.6033   -393.01806    1548.7781
Loop time of 0.00985976 on 1 procs for 2 steps with 140 atoms

Minimization stats:
  Stopping criterion = linesearch alpha is zero
  Energy initial, next-to-last, final =
  Force two-norm initial, final = 90.2323 29.5818
  Force max component initial, final = 80.3429 25.5931
  Final line search alpha, max atom move = 1.00752e-11 2.57856e-10
  Iterations, force evaluations = 2 53

unfix           1
min_style       fire
variable        tempstp    equal $(step)
variable        tempstp    equal 21040
variable        CellMinStep equal 21040
minimize        1.0e-15 1.0e-15 10000 100000
  Parameters for fire:
    dmax delaystep dtgrow dtshrink alpha0 alphashrink tmax tmin    integrator halfstepback
     0.1        20    1.1      0.5   0.25        0.99   10 0.02 eulerimplicit          yes
Step Temp E_pair E_mol TotEng Press
21040            0    95.599033    1518.9748    1614.5738    411.21126
Loop time of 0.746409 on 1 procs for 4733 steps with 140 atoms

Minimization stats:
  Stopping criterion = energy tolerance
  Energy initial, next-to-last, final =
  Force two-norm initial, final = 7.11117 3.931e-05
  Force max component initial, final = 1.3135 1.2484e-05
  Final line search alpha, max atom move = 0 0
  Iterations, force evaluations = 4733 4733

variable        AtomMinStep equal 21040
variable        temppe     equal $(pe)
variable        temppe     equal 1614.4424508446304571
variable        min_E      equal abs(1614.60325499773-1614.44245084463)
variable        prev_E     equal 1614.44245084463
next            iter
jump            SELF loop_min
min_style       cg
fix             1 all box/relax aniso 0.0 vmax 0.01
minimize        1.0e-15 1.0e-15 10000 100000
Step Temp E_pair E_mol TotEng Press Volume
25773 1.2885505e-10    95.144057    1519.2984    1614.4425    44.629254    1548.2502
Loop time of 0.0104175 on 1 procs for 1 steps with 140 atoms

Minimization stats:
  Stopping criterion = linesearch alpha is zero
  Energy initial, next-to-last, final =
  Force two-norm initial, final = 80.2032 80.2032
  Force max component initial, final = 62.7486 62.7486
  Final line search alpha, max atom move = 1.18737e-12 7.45058e-11
  Iterations, force evaluations = 1 55

unfix           1
min_style       fire
variable        tempstp    equal $(step)
variable        tempstp    equal 25774
variable        CellMinStep equal 25774
minimize        1.0e-15 1.0e-15 10000 100000
  Parameters for fire:
    dmax delaystep dtgrow dtshrink alpha0 alphashrink tmax tmin    integrator halfstepback
     0.1        20    1.1      0.5   0.25        0.99   10 0.02 eulerimplicit          yes
Step Temp E_pair E_mol TotEng Press
25774            0    95.144057    1519.2984    1614.4425    44.629254
Loop time of 0.0150095 on 1 procs for 92 steps with 140 atoms

Minimization stats:
  Stopping criterion = energy tolerance
  Energy initial, next-to-last, final =
  Force two-norm initial, final = 3.931e-05 3.45856e-05
  Force max component initial, final = 1.2484e-05 1.09866e-05
  Final line search alpha, max atom move = 0 0
  Iterations, force evaluations = 92 92

variable        AtomMinStep equal 25774
variable        temppe     equal $(pe)
variable        temppe     equal 1614.4424508443767081
variable        min_E      equal abs(1614.44245084463-1614.44245084438)
jump SELF break_min
undump          NiPyC2_relax_sc211_meta_functionalized_CH-CH2_xyzmov

# Dump last snapshot for restart
variable curr_lx equal lx
variable curr_ly equal ly
variable curr_lz equal lz
change_box all x final 0 13.4667480994546 y final 0 10.3038759073322 z final 0 11.1577799030662
  triclinic box = (0 1.10976 -0.44175) to (13.4667 11.4136 10.716) with tilt (0 -0.247165 0)
  triclinic box = (0 0 -0.44175) to (13.4667 10.3039 10.716) with tilt (0 -0.247165 0)
  triclinic box = (0 0 0) to (13.4667 10.3039 11.1578) with tilt (0 -0.247165 0)

reset_timestep 0
dump            NiPyC2_relax_sc211_meta_functionalized_CH-CH2_restart all atom 1 NiPyC2_relax_sc211_meta_functionalized_CH-CH2_restart.lammpstrj
dump_modify     NiPyC2_relax_sc211_meta_functionalized_CH-CH2_restart scale no sort id
run 0
Step Temp E_pair E_mol TotEng Press
0 1.0095688e-10    95.144053    1519.2984    1614.4425    44.628918
Loop time of 7.89005e-07 on 1 procs for 0 steps with 140 atoms

undump          NiPyC2_relax_sc211_meta_functionalized_CH-CH2_restart
