units           real
atom_style      full
boundary        p p p

pair_style      lj/cut 5.000
bond_style      harmonic
angle_style     cosine/periodic
dihedral_style  harmonic
improper_style  fourier

dielectric      1.0
pair_modify     tail yes mix arithmetic
special_bonds   lj/coul 0.0 0.0 1.0
box tilt        large
read_data       data.NiPyC2_relax_sc211_ortho_functionalized_CH-CH2
  triclinic box = (0 0 0) to (12.5056 12.5234 10.2743) with tilt (0 -0.227594 0)
  reading atoms ...
  140 atoms
  scanning bonds ...
  scanning angles ...
  scanning dihedrals ...
  scanning impropers ...
  reading bonds ...
  160 bonds
  reading angles ...
  292 angles
  reading dihedrals ...
  320 dihedrals
  reading impropers ...
  216 impropers

#### Atom Groupings ####
group           fram     id   1:140
140 atoms in group fram
#### END Atom Groupings ####

dump            NiPyC2_relax_sc211_ortho_functionalized_CH-CH2_xyzmov all xyz 20000 NiPyC2_relax_sc211_ortho_functionalized_CH-CH2_mov.xyz
dump_modify     NiPyC2_relax_sc211_ortho_functionalized_CH-CH2_xyzmov element Ni O N C H C
min_style       cg
print           "MinStep,CellMinStep,AtomMinStep,FinalStep,Energy,EDiff" file NiPyC2_relax_sc211_ortho_functionalized_CH-CH2.min.csv screen no
variable        min_eval   equal 1.00e-06
variable        prev_E     equal 50000.00
variable        iter       loop 100000
label           loop_min
min_style       cg
fix             1 all box/relax aniso 0.0 vmax 0.01
minimize        1.0e-15 1.0e-15 10000 100000
  update every 1 steps, delay 0 steps, check yes
Step Temp E_pair E_mol TotEng Press Volume
0            0    559605.56    2254.1659    561859.72     95425322    1609.0819
Loop time of 0.114265 on 1 procs for 333 steps with 140 atoms

Minimization stats:
  Stopping criterion = linesearch alpha is zero
  Energy initial, next-to-last, final =
  Force two-norm initial, final = 5.83921e+06 50.115
  Force max component initial, final = 3.71627e+06 18.2409
  Final line search alpha, max atom move = 4.41511e-12 8.05355e-11
  Iterations, force evaluations = 333 590

unfix           1
min_style       fire
variable        tempstp    equal $(step)
variable        tempstp    equal 333
variable        CellMinStep equal 333
minimize        1.0e-15 1.0e-15 10000 100000
  Parameters for fire:
    dmax delaystep dtgrow dtshrink alpha0 alphashrink tmax tmin    integrator halfstepback
     0.1        20    1.1      0.5   0.25        0.99   10 0.02 eulerimplicit          yes
Step Temp E_pair E_mol TotEng Press
333            0    111.59537    1653.5147    1765.1101    225.37033
Loop time of 0.502135 on 1 procs for 3245 steps with 140 atoms

Minimization stats:
  Stopping criterion = energy tolerance
  Energy initial, next-to-last, final =
  Force two-norm initial, final = 46.3946 4.58395e-05
  Force max component initial, final = 8.44202 1.28114e-05
  Final line search alpha, max atom move = 0 0
  Iterations, force evaluations = 3245 3245

variable        AtomMinStep equal 333
variable        temppe     equal $(pe)
variable        temppe     equal 1695.2153176622816773
variable        min_E      equal abs(50000-1695.21531766228)
variable        prev_E     equal 1695.21531766228
next            iter
jump            SELF loop_min
min_style       cg
fix             1 all box/relax aniso 0.0 vmax 0.01
minimize        1.0e-15 1.0e-15 10000 100000
Step Temp E_pair E_mol TotEng Press Volume
3578 1.1370723e-10    95.066195    1600.1491    1695.2153   -2139.6282    1650.4252
Loop time of 0.00928116 on 1 procs for 2 steps with 140 atoms

Minimization stats:
  Stopping criterion = linesearch alpha is zero
  Energy initial, next-to-last, final =
  Force two-norm initial, final = 99.7028 9.61426
  Force max component initial, final = 87.4056 5.95476
  Final line search alpha, max atom move = 9.97857e-11 5.942e-10
  Iterations, force evaluations = 2 51

unfix           1
min_style       fire
variable        tempstp    equal $(step)
variable        tempstp    equal 3580
variable        CellMinStep equal 3580
minimize        1.0e-15 1.0e-15 10000 100000
  Parameters for fire:
    dmax delaystep dtgrow dtshrink alpha0 alphashrink tmax tmin    integrator halfstepback
     0.1        20    1.1      0.5   0.25        0.99   10 0.02 eulerimplicit          yes
Step Temp E_pair E_mol TotEng Press
3580            0    96.732079    1598.4333    1695.1654   -25.202296
Loop time of 0.261052 on 1 procs for 1704 steps with 140 atoms

Minimization stats:
  Stopping criterion = energy tolerance
  Energy initial, next-to-last, final =
  Force two-norm initial, final = 6.54845 5.30877e-05
  Force max component initial, final = 1.28897 9.08868e-06
  Final line search alpha, max atom move = 0 0
  Iterations, force evaluations = 1704 1704

variable        AtomMinStep equal 3580
variable        temppe     equal $(pe)
variable        temppe     equal 1695.1206018537911859
variable        min_E      equal abs(1695.21531766228-1695.12060185379)
variable        prev_E     equal 1695.12060185379
next            iter
jump            SELF loop_min
min_style       cg
fix             1 all box/relax aniso 0.0 vmax 0.01
minimize        1.0e-15 1.0e-15 10000 100000
Step Temp E_pair E_mol TotEng Press Volume
5284 1.5154962e-10    95.990466    1599.1301    1695.1206   -1377.8612    1648.2527
Loop time of 0.0103465 on 1 procs for 3 steps with 140 atoms

Minimization stats:
  Stopping criterion = linesearch alpha is zero
  Energy initial, next-to-last, final =
  Force two-norm initial, final = 71.166 8.46929
  Force max component initial, final = 67.1743 6.78372
  Final line search alpha, max atom move = 1.10693e-10 7.50911e-10
  Iterations, force evaluations = 3 57

unfix           1
min_style       fire
variable        tempstp    equal $(step)
variable        tempstp    equal 5287
variable        CellMinStep equal 5287
minimize        1.0e-15 1.0e-15 10000 100000
  Parameters for fire:
    dmax delaystep dtgrow dtshrink alpha0 alphashrink tmax tmin    integrator halfstepback
     0.1        20    1.1      0.5   0.25        0.99   10 0.02 eulerimplicit          yes
Step Temp E_pair E_mol TotEng Press
5287            0    97.023388    1598.0392    1695.0626   -77.104051
Loop time of 0.275281 on 1 procs for 1812 steps with 140 atoms

Minimization stats:
  Stopping criterion = energy tolerance
  Energy initial, next-to-last, final =
  Force two-norm initial, final = 4.82479 4.1023e-05
  Force max component initial, final = 0.982915 6.62909e-06
  Final line search alpha, max atom move = 0 0
  Iterations, force evaluations = 1812 1812

variable        AtomMinStep equal 5287
variable        temppe     equal $(pe)
variable        temppe     equal 1695.0209071417389168
variable        min_E      equal abs(1695.12060185379-1695.02090714174)
variable        prev_E     equal 1695.02090714174
next            iter
jump            SELF loop_min
min_style       cg
fix             1 all box/relax aniso 0.0 vmax 0.01
minimize        1.0e-15 1.0e-15 10000 100000
Step Temp E_pair E_mol TotEng Press Volume
7099 8.845163e-11    96.556908     1598.464    1695.0209   -934.80047    1646.9224
Loop time of 0.0102207 on 1 procs for 1 steps with 140 atoms

Minimization stats:
  Stopping criterion = linesearch alpha is zero
  Energy initial, next-to-last, final =
  Force two-norm initial, final = 54.3729 54.3729
  Force max component initial, final = 53.293 53.293
  Final line search alpha, max atom move = 2.79608e-12 1.49012e-10
  Iterations, force evaluations = 1 53

unfix           1
min_style       fire
variable        tempstp    equal $(step)
variable        tempstp    equal 7100
variable        CellMinStep equal 7100
minimize        1.0e-15 1.0e-15 10000 100000
  Parameters for fire:
    dmax delaystep dtgrow dtshrink alpha0 alphashrink tmax tmin    integrator halfstepback
     0.1        20    1.1      0.5   0.25        0.99   10 0.02 eulerimplicit          yes
Step Temp E_pair E_mol TotEng Press
7100            0    96.556908     1598.464    1695.0209   -934.80047
Loop time of 0.00986456 on 1 procs for 61 steps with 140 atoms

Minimization stats:
  Stopping criterion = energy tolerance
  Energy initial, next-to-last, final =
  Force two-norm initial, final = 4.1023e-05 3.2885e-05
  Force max component initial, final = 6.62909e-06 5.76902e-06
  Final line search alpha, max atom move = 0 0
  Iterations, force evaluations = 61 61

variable        AtomMinStep equal 7100
variable        temppe     equal $(pe)
variable        temppe     equal 1695.0209071415858944
variable        min_E      equal abs(1695.02090714174-1695.02090714159)
jump SELF break_min
undump          NiPyC2_relax_sc211_ortho_functionalized_CH-CH2_xyzmov

# Dump last snapshot for restart
variable curr_lx equal lx
variable curr_ly equal ly
variable curr_lz equal lz
change_box all x final 0 15.0831798845116 y final 0 10.5176136238487 z final 0 10.3815694892364
  triclinic box = (0 1.00289 -0.0536452) to (15.0832 11.5205 10.3279) with tilt (0 -0.229971 0)
  triclinic box = (0 0 -0.0536452) to (15.0832 10.5176 10.3279) with tilt (0 -0.229971 0)
  triclinic box = (0 0 0) to (15.0832 10.5176 10.3816) with tilt (0 -0.229971 0)

reset_timestep 0
dump            NiPyC2_relax_sc211_ortho_functionalized_CH-CH2_restart all atom 1 NiPyC2_relax_sc211_ortho_functionalized_CH-CH2_restart.lammpstrj
dump_modify     NiPyC2_relax_sc211_ortho_functionalized_CH-CH2_restart scale no sort id
run 0
Step Temp E_pair E_mol TotEng Press
0 1.3722784e-10    96.556903     1598.464    1695.0209   -934.80211
Loop time of 7.81001e-07 on 1 procs for 0 steps with 140 atoms

undump          NiPyC2_relax_sc211_ortho_functionalized_CH-CH2_restart
