units           real
atom_style      full
boundary        p p p

pair_style      lj/cut 5.000
bond_style      harmonic
angle_style     hybrid cosine/periodic fourier
dihedral_style  harmonic
improper_style  fourier

dielectric      1.0
pair_modify     tail yes mix arithmetic
special_bonds   lj/coul 0.0 0.0 1.0
box tilt        large
read_data       data.NiPyC2_relax_sc211_ortho_functionalized_CH2-NH2
  triclinic box = (0 0 0) to (12.5056 12.5234 10.2743) with tilt (0 -0.227594 0)
  reading atoms ...
  148 atoms
  scanning bonds ...
  scanning angles ...
  scanning dihedrals ...
  scanning impropers ...
  reading bonds ...
  168 bonds
  reading angles ...
  316 angles
  reading dihedrals ...
  352 dihedrals
  reading impropers ...
  192 impropers

#### Atom Groupings ####
group           fram     id   1:148
148 atoms in group fram
#### END Atom Groupings ####

dump            NiPyC2_relax_sc211_ortho_functionalized_CH2-NH2_xyzmov all xyz 20000 NiPyC2_relax_sc211_ortho_functionalized_CH2-NH2_mov.xyz
dump_modify     NiPyC2_relax_sc211_ortho_functionalized_CH2-NH2_xyzmov element Ni O N C H C N
min_style       cg
print           "MinStep,CellMinStep,AtomMinStep,FinalStep,Energy,EDiff" file NiPyC2_relax_sc211_ortho_functionalized_CH2-NH2.min.csv screen no
variable        min_eval   equal 1.00e-06
variable        prev_E     equal 50000.00
variable        iter       loop 100000
label           loop_min
min_style       cg
fix             1 all box/relax aniso 0.0 vmax 0.01
minimize        1.0e-15 1.0e-15 10000 100000
  update every 1 steps, delay 0 steps, check yes
Step Temp E_pair E_mol TotEng Press Volume
0            0    7286753.1    2245.8718      7288999 1.2422305e+09    1609.0819
Loop time of 0.175658 on 1 procs for 479 steps with 148 atoms

Minimization stats:
  Stopping criterion = linesearch alpha is zero
  Energy initial, next-to-last, final =
  Force two-norm initial, final = 1.55199e+08 62.4565
  Force max component initial, final = 8.2175e+07 41.3312
  Final line search alpha, max atom move = 1.84284e-12 7.6167e-11
  Iterations, force evaluations = 479 867

unfix           1
min_style       fire
variable        tempstp    equal $(step)
variable        tempstp    equal 479
variable        CellMinStep equal 479
minimize        1.0e-15 1.0e-15 10000 100000
  Parameters for fire:
    dmax delaystep dtgrow dtshrink alpha0 alphashrink tmax tmin    integrator halfstepback
     0.1        20    1.1      0.5   0.25        0.99   10 0.02 eulerimplicit          yes
Step Temp E_pair E_mol TotEng Press
479            0    158.09814     1721.595    1879.6931    776.22901
Loop time of 1.15221 on 1 procs for 6945 steps with 148 atoms

Minimization stats:
  Stopping criterion = energy tolerance
  Energy initial, next-to-last, final =
  Force two-norm initial, final = 45.5898 4.07624e-05
  Force max component initial, final = 9.75704 8.35435e-06
  Final line search alpha, max atom move = 0 0
  Iterations, force evaluations = 6945 6945

variable        AtomMinStep equal 479
variable        temppe     equal $(pe)
variable        temppe     equal 1820.5809849966724414
variable        min_E      equal abs(50000-1820.58098499667)
variable        prev_E     equal 1820.58098499667
next            iter
jump            SELF loop_min
min_style       cg
fix             1 all box/relax aniso 0.0 vmax 0.01
minimize        1.0e-15 1.0e-15 10000 100000
Step Temp E_pair E_mol TotEng Press Volume
7424 9.1592326e-11    136.64469    1683.9363     1820.581   -3437.7127    1659.9271
Loop time of 0.0112673 on 1 procs for 2 steps with 148 atoms

Minimization stats:
  Stopping criterion = linesearch alpha is zero
  Energy initial, next-to-last, final =
  Force two-norm initial, final = 340.662 84.0583
  Force max component initial, final = 251.579 68.2097
  Final line search alpha, max atom move = 1.25258e-12 8.54383e-11
  Iterations, force evaluations = 2 57

unfix           1
min_style       fire
variable        tempstp    equal $(step)
variable        tempstp    equal 7426
variable        CellMinStep equal 7426
minimize        1.0e-15 1.0e-15 10000 100000
  Parameters for fire:
    dmax delaystep dtgrow dtshrink alpha0 alphashrink tmax tmin    integrator halfstepback
     0.1        20    1.1      0.5   0.25        0.99   10 0.02 eulerimplicit          yes
Step Temp E_pair E_mol TotEng Press
7426            0    140.78966    1679.0372    1819.8268    580.43184
Loop time of 0.601839 on 1 procs for 3629 steps with 148 atoms

Minimization stats:
  Stopping criterion = energy tolerance
  Energy initial, next-to-last, final =
  Force two-norm initial, final = 27.4382 4.07062e-05
  Force max component initial, final = 3.81264 8.35656e-06
  Final line search alpha, max atom move = 0 0
  Iterations, force evaluations = 3629 3629

variable        AtomMinStep equal 7426
variable        temppe     equal $(pe)
variable        temppe     equal 1819.2892685145261567
variable        min_E      equal abs(1820.58098499667-1819.28926851453)
variable        prev_E     equal 1819.28926851453
next            iter
jump            SELF loop_min
min_style       cg
fix             1 all box/relax aniso 0.0 vmax 0.01
minimize        1.0e-15 1.0e-15 10000 100000
Step Temp E_pair E_mol TotEng Press Volume
11055 1.1112837e-10    138.61733    1680.6719    1819.2893   -1835.8908     1655.173
Loop time of 0.0112677 on 1 procs for 2 steps with 148 atoms

Minimization stats:
  Stopping criterion = linesearch alpha is zero
  Energy initial, next-to-last, final =
  Force two-norm initial, final = 293.867 67.7137
  Force max component initial, final = 202.348 50.4789
  Final line search alpha, max atom move = 1.59324e-12 8.04253e-11
  Iterations, force evaluations = 2 57

unfix           1
min_style       fire
variable        tempstp    equal $(step)
variable        tempstp    equal 11057
variable        CellMinStep equal 11057
minimize        1.0e-15 1.0e-15 10000 100000
  Parameters for fire:
    dmax delaystep dtgrow dtshrink alpha0 alphashrink tmax tmin    integrator halfstepback
     0.1        20    1.1      0.5   0.25        0.99   10 0.02 eulerimplicit          yes
Step Temp E_pair E_mol TotEng Press
11057            0    140.93441    1677.7606     1818.695    77.787307
Loop time of 0.623388 on 1 procs for 3746 steps with 148 atoms

Minimization stats:
  Stopping criterion = energy tolerance
  Energy initial, next-to-last, final =
  Force two-norm initial, final = 24.8134 4.42821e-05
  Force max component initial, final = 3.89777 9.06187e-06
  Final line search alpha, max atom move = 0 0
  Iterations, force evaluations = 3746 3746

variable        AtomMinStep equal 11057
variable        temppe     equal $(pe)
variable        temppe     equal 1818.2494495665348495
variable        min_E      equal abs(1819.28926851453-1818.24944956653)
variable        prev_E     equal 1818.24944956653
next            iter
jump            SELF loop_min
min_style       cg
fix             1 all box/relax aniso 0.0 vmax 0.01
minimize        1.0e-15 1.0e-15 10000 100000
Step Temp E_pair E_mol TotEng Press Volume
14803 1.1898176e-10    139.71663    1678.5328    1818.2494   -966.10608    1652.5804
Loop time of 0.0236243 on 1 procs for 22 steps with 148 atoms

Minimization stats:
  Stopping criterion = linesearch alpha is zero
  Energy initial, next-to-last, final =
  Force two-norm initial, final = 263.302 68.3881
  Force max component initial, final = 181.843 50.8794
  Final line search alpha, max atom move = 2.48079e-12 1.26221e-10
  Iterations, force evaluations = 22 119

unfix           1
min_style       fire
variable        tempstp    equal $(step)
variable        tempstp    equal 14825
variable        CellMinStep equal 14825
minimize        1.0e-15 1.0e-15 10000 100000
  Parameters for fire:
    dmax delaystep dtgrow dtshrink alpha0 alphashrink tmax tmin    integrator halfstepback
     0.1        20    1.1      0.5   0.25        0.99   10 0.02 eulerimplicit          yes
Step Temp E_pair E_mol TotEng Press
14825            0    143.83174    1672.3994    1816.2311    607.82477
Loop time of 1.1678 on 1 procs for 6977 steps with 148 atoms

Minimization stats:
  Stopping criterion = energy tolerance
  Energy initial, next-to-last, final =
  Force two-norm initial, final = 35.3836 4.8983e-05
  Force max component initial, final = 5.6664 1.04384e-05
  Final line search alpha, max atom move = 0 0
  Iterations, force evaluations = 6977 6977

variable        AtomMinStep equal 14825
variable        temppe     equal $(pe)
variable        temppe     equal 1814.6697523443160662
variable        min_E      equal abs(1818.24944956653-1814.66975234432)
variable        prev_E     equal 1814.66975234432
next            iter
jump            SELF loop_min
min_style       cg
fix             1 all box/relax aniso 0.0 vmax 0.01
minimize        1.0e-15 1.0e-15 10000 100000
Step Temp E_pair E_mol TotEng Press Volume
21802 1.2724971e-10    141.35952    1673.3102    1814.6698     606.2774    1648.9425
Loop time of 0.0111695 on 1 procs for 3 steps with 148 atoms

Minimization stats:
  Stopping criterion = linesearch alpha is zero
  Energy initial, next-to-last, final =
  Force two-norm initial, final = 168.93 18.5808
  Force max component initial, final = 139.491 7.75496
  Final line search alpha, max atom move = 3.46332e-11 2.68579e-10
  Iterations, force evaluations = 3 55

unfix           1
min_style       fire
variable        tempstp    equal $(step)
variable        tempstp    equal 21805
variable        CellMinStep equal 21805
minimize        1.0e-15 1.0e-15 10000 100000
  Parameters for fire:
    dmax delaystep dtgrow dtshrink alpha0 alphashrink tmax tmin    integrator halfstepback
     0.1        20    1.1      0.5   0.25        0.99   10 0.02 eulerimplicit          yes
Step Temp E_pair E_mol TotEng Press
21805            0    141.60573    1672.8544    1814.4601    218.68334
Loop time of 0.87947 on 1 procs for 5265 steps with 148 atoms

Minimization stats:
  Stopping criterion = energy tolerance
  Energy initial, next-to-last, final =
  Force two-norm initial, final = 15.8077 3.9812e-05
  Force max component initial, final = 2.37488 8.82933e-06
  Final line search alpha, max atom move = 0 0
  Iterations, force evaluations = 5265 5265

variable        AtomMinStep equal 21805
variable        temppe     equal $(pe)
variable        temppe     equal 1814.2626599851842002
variable        min_E      equal abs(1814.66975234432-1814.26265998518)
variable        prev_E     equal 1814.26265998518
next            iter
jump            SELF loop_min
min_style       cg
fix             1 all box/relax aniso 0.0 vmax 0.01
minimize        1.0e-15 1.0e-15 10000 100000
Step Temp E_pair E_mol TotEng Press Volume
27070 1.1372341e-10    141.35485    1672.9078    1814.2627    696.13359    1648.6849
Loop time of 0.012401 on 1 procs for 5 steps with 148 atoms

Minimization stats:
  Stopping criterion = linesearch alpha is zero
  Energy initial, next-to-last, final =
  Force two-norm initial, final = 158.333 22.1884
  Force max component initial, final = 131.384 8.34038
  Final line search alpha, max atom move = 1.58177e-11 1.31925e-10
  Iterations, force evaluations = 5 61

unfix           1
min_style       fire
variable        tempstp    equal $(step)
variable        tempstp    equal 27075
variable        CellMinStep equal 27075
minimize        1.0e-15 1.0e-15 10000 100000
  Parameters for fire:
    dmax delaystep dtgrow dtshrink alpha0 alphashrink tmax tmin    integrator halfstepback
     0.1        20    1.1      0.5   0.25        0.99   10 0.02 eulerimplicit          yes
Step Temp E_pair E_mol TotEng Press
27075            0    141.12376    1672.8637    1813.9874    -84.16706
Loop time of 0.986465 on 1 procs for 5895 steps with 148 atoms

Minimization stats:
  Stopping criterion = energy tolerance
  Energy initial, next-to-last, final =
  Force two-norm initial, final = 17.7906 4.06229e-05
  Force max component initial, final = 2.95226 9.47242e-06
  Final line search alpha, max atom move = 0 0
  Iterations, force evaluations = 5895 5895

variable        AtomMinStep equal 27075
variable        temppe     equal $(pe)
variable        temppe     equal 1813.796500633580763
variable        min_E      equal abs(1814.26265998518-1813.79650063358)
variable        prev_E     equal 1813.79650063358
next            iter
jump            SELF loop_min
min_style       cg
fix             1 all box/relax aniso 0.0 vmax 0.01
minimize        1.0e-15 1.0e-15 10000 100000
Step Temp E_pair E_mol TotEng Press Volume
32970 1.1437658e-10    141.08602    1672.7105    1813.7965    596.04295    1649.0733
Loop time of 0.0109215 on 1 procs for 3 steps with 148 atoms

Minimization stats:
  Stopping criterion = linesearch alpha is zero
  Energy initial, next-to-last, final =
  Force two-norm initial, final = 143.557 15.9867
  Force max component initial, final = 116.361 6.86736
  Final line search alpha, max atom move = 4.06184e-11 2.78941e-10
  Iterations, force evaluations = 3 55

unfix           1
min_style       fire
variable        tempstp    equal $(step)
variable        tempstp    equal 32973
variable        CellMinStep equal 32973
minimize        1.0e-15 1.0e-15 10000 100000
  Parameters for fire:
    dmax delaystep dtgrow dtshrink alpha0 alphashrink tmax tmin    integrator halfstepback
     0.1        20    1.1      0.5   0.25        0.99   10 0.02 eulerimplicit          yes
Step Temp E_pair E_mol TotEng Press
32973            0    141.25503    1672.4006    1813.6556     175.6135
Loop time of 0.969668 on 1 procs for 5748 steps with 148 atoms

Minimization stats:
  Stopping criterion = energy tolerance
  Energy initial, next-to-last, final =
  Force two-norm initial, final = 13.7063 5.05078e-05
  Force max component initial, final = 2.02426 1.19863e-05
  Final line search alpha, max atom move = 0 0
  Iterations, force evaluations = 5748 5748

variable        AtomMinStep equal 32973
variable        temppe     equal $(pe)
variable        temppe     equal 1813.5260681528366149
variable        min_E      equal abs(1813.79650063358-1813.52606815284)
variable        prev_E     equal 1813.52606815284
next            iter
jump            SELF loop_min
min_style       cg
fix             1 all box/relax aniso 0.0 vmax 0.01
minimize        1.0e-15 1.0e-15 10000 100000
Step Temp E_pair E_mol TotEng Press Volume
38721 1.5894051e-10    141.04901    1672.4771    1813.5261    643.48795     1648.907
Loop time of 0.0216402 on 1 procs for 6 steps with 148 atoms

Minimization stats:
  Stopping criterion = linesearch alpha is zero
  Energy initial, next-to-last, final =
  Force two-norm initial, final = 135.444 30.4151
  Force max component initial, final = 109.357 23.9056
  Final line search alpha, max atom move = 2.29285e-11 5.4812e-10
  Iterations, force evaluations = 6 87

unfix           1
min_style       fire
variable        tempstp    equal $(step)
variable        tempstp    equal 38727
variable        CellMinStep equal 38727
minimize        1.0e-15 1.0e-15 10000 100000
  Parameters for fire:
    dmax delaystep dtgrow dtshrink alpha0 alphashrink tmax tmin    integrator halfstepback
     0.1        20    1.1      0.5   0.25        0.99   10 0.02 eulerimplicit          yes
Step Temp E_pair E_mol TotEng Press
38727            0    140.40989    1672.8718    1813.2817   -495.26995
Loop time of 1.33832 on 1 procs for 8055 steps with 148 atoms

Minimization stats:
  Stopping criterion = energy tolerance
  Energy initial, next-to-last, final =
  Force two-norm initial, final = 16.7729 4.52894e-05
  Force max component initial, final = 2.8627 1.09222e-05
  Final line search alpha, max atom move = 0 0
  Iterations, force evaluations = 8055 8055

variable        AtomMinStep equal 38727
variable        temppe     equal $(pe)
variable        temppe     equal 1813.0896032334067058
variable        min_E      equal abs(1813.52606815284-1813.08960323341)
variable        prev_E     equal 1813.08960323341
next            iter
jump            SELF loop_min
min_style       cg
fix             1 all box/relax aniso 0.0 vmax 0.01
minimize        1.0e-15 1.0e-15 10000 100000
Step Temp E_pair E_mol TotEng Press Volume
46782 1.4791094e-10     140.4855    1672.6041    1813.0896    396.85584    1649.6572
Loop time of 0.0109496 on 1 procs for 3 steps with 148 atoms

Minimization stats:
  Stopping criterion = linesearch alpha is zero
  Energy initial, next-to-last, final =
  Force two-norm initial, final = 121.923 13.7126
  Force max component initial, final = 93.0563 5.44122
  Final line search alpha, max atom move = 5.06261e-11 2.75468e-10
  Iterations, force evaluations = 3 55

unfix           1
min_style       fire
variable        tempstp    equal $(step)
variable        tempstp    equal 46785
variable        CellMinStep equal 46785
minimize        1.0e-15 1.0e-15 10000 100000
  Parameters for fire:
    dmax delaystep dtgrow dtshrink alpha0 alphashrink tmax tmin    integrator halfstepback
     0.1        20    1.1      0.5   0.25        0.99   10 0.02 eulerimplicit          yes
Step Temp E_pair E_mol TotEng Press
46785            0      140.739     1672.235     1812.974    148.25085
Loop time of 1.10611 on 1 procs for 6654 steps with 148 atoms

Minimization stats:
  Stopping criterion = energy tolerance
  Energy initial, next-to-last, final =
  Force two-norm initial, final = 11.9406 4.54411e-05
  Force max component initial, final = 1.7189 1.09415e-05
  Final line search alpha, max atom move = 0 0
  Iterations, force evaluations = 6654 6654

variable        AtomMinStep equal 46785
variable        temppe     equal $(pe)
variable        temppe     equal 1812.8160318377185831
variable        min_E      equal abs(1813.08960323341-1812.81603183772)
variable        prev_E     equal 1812.81603183772
next            iter
jump            SELF loop_min
min_style       cg
fix             1 all box/relax aniso 0.0 vmax 0.01
minimize        1.0e-15 1.0e-15 10000 100000
Step Temp E_pair E_mol TotEng Press Volume
53439 1.4860075e-10    140.38792    1672.4281     1812.816     473.9641    1649.3627
Loop time of 0.0106071 on 1 procs for 2 steps with 148 atoms

Minimization stats:
  Stopping criterion = linesearch alpha is zero
  Energy initial, next-to-last, final =
  Force two-norm initial, final = 115.906 34.8725
  Force max component initial, final = 88.7604 25.3051
  Final line search alpha, max atom move = 9.2583e-12 2.34282e-10
  Iterations, force evaluations = 2 53

unfix           1
min_style       fire
variable        tempstp    equal $(step)
variable        tempstp    equal 53441
variable        CellMinStep equal 53441
minimize        1.0e-15 1.0e-15 10000 100000
  Parameters for fire:
    dmax delaystep dtgrow dtshrink alpha0 alphashrink tmax tmin    integrator halfstepback
     0.1        20    1.1      0.5   0.25        0.99   10 0.02 eulerimplicit          yes
Step Temp E_pair E_mol TotEng Press
53441            0    139.84221    1672.9097    1812.7519   -645.06266
Loop time of 1.0391 on 1 procs for 6260 steps with 148 atoms

Minimization stats:
  Stopping criterion = energy tolerance
  Energy initial, next-to-last, final =
  Force two-norm initial, final = 10.9552 4.26091e-05
  Force max component initial, final = 1.7212 1.04367e-05
  Final line search alpha, max atom move = 0 0
  Iterations, force evaluations = 6260 6260

variable        AtomMinStep equal 53441
variable        temppe     equal $(pe)
variable        temppe     equal 1812.7047748128381954
variable        min_E      equal abs(1812.81603183772-1812.70477481284)
variable        prev_E     equal 1812.70477481284
next            iter
jump            SELF loop_min
min_style       cg
fix             1 all box/relax aniso 0.0 vmax 0.01
minimize        1.0e-15 1.0e-15 10000 100000
Step Temp E_pair E_mol TotEng Press Volume
59701 1.1971458e-10    140.09599    1672.6088    1812.7048    218.53046    1650.0555
Loop time of 0.0109635 on 1 procs for 3 steps with 148 atoms

Minimization stats:
  Stopping criterion = linesearch alpha is zero
  Energy initial, next-to-last, final =
  Force two-norm initial, final = 108.454 12.2463
  Force max component initial, final = 76.2445 4.28301
  Final line search alpha, max atom move = 6.38487e-11 2.73465e-10
  Iterations, force evaluations = 3 55

unfix           1
min_style       fire
variable        tempstp    equal $(step)
variable        tempstp    equal 59704
variable        CellMinStep equal 59704
minimize        1.0e-15 1.0e-15 10000 100000
  Parameters for fire:
    dmax delaystep dtgrow dtshrink alpha0 alphashrink tmax tmin    integrator halfstepback
     0.1        20    1.1      0.5   0.25        0.99   10 0.02 eulerimplicit          yes
Step Temp E_pair E_mol TotEng Press
59704            0    140.43637    1672.1541    1812.5905    126.78032
Loop time of 1.23196 on 1 procs for 7384 steps with 148 atoms

Minimization stats:
  Stopping criterion = energy tolerance
  Energy initial, next-to-last, final =
  Force two-norm initial, final = 10.8983 5.15552e-05
  Force max component initial, final = 1.57135 1.26817e-05
  Final line search alpha, max atom move = 0 0
  Iterations, force evaluations = 7384 7384

variable        AtomMinStep equal 59704
variable        temppe     equal $(pe)
variable        temppe     equal 1812.5631068789846267
variable        min_E      equal abs(1812.70477481284-1812.56310687898)
variable        prev_E     equal 1812.56310687898
next            iter
jump            SELF loop_min
min_style       cg
fix             1 all box/relax aniso 0.0 vmax 0.01
minimize        1.0e-15 1.0e-15 10000 100000
Step Temp E_pair E_mol TotEng Press Volume
67088 1.5737367e-10    140.11366    1672.4494    1812.5631    344.83498     1649.622
Loop time of 0.0113276 on 1 procs for 2 steps with 148 atoms

Minimization stats:
  Stopping criterion = linesearch alpha is zero
  Energy initial, next-to-last, final =
  Force two-norm initial, final = 104.079 31.8722
  Force max component initial, final = 73.8893 21.6936
  Final line search alpha, max atom move = 1.04144e-11 2.25925e-10
  Iterations, force evaluations = 2 53

unfix           1
min_style       fire
variable        tempstp    equal $(step)
variable        tempstp    equal 67090
variable        CellMinStep equal 67090
minimize        1.0e-15 1.0e-15 10000 100000
  Parameters for fire:
    dmax delaystep dtgrow dtshrink alpha0 alphashrink tmax tmin    integrator halfstepback
     0.1        20    1.1      0.5   0.25        0.99   10 0.02 eulerimplicit          yes
Step Temp E_pair E_mol TotEng Press
67090            0    139.66244    1672.8151    1812.4775   -607.22677
Loop time of 1.32738 on 1 procs for 7969 steps with 148 atoms

Minimization stats:
  Stopping criterion = energy tolerance
  Energy initial, next-to-last, final =
  Force two-norm initial, final = 10.1737 4.0766e-05
  Force max component initial, final = 1.56785 1.01011e-05
  Final line search alpha, max atom move = 0 0
  Iterations, force evaluations = 7969 7969

variable        AtomMinStep equal 67090
variable        temppe     equal $(pe)
variable        temppe     equal 1812.4013894606396207
variable        min_E      equal abs(1812.56310687898-1812.40138946064)
variable        prev_E     equal 1812.40138946064
next            iter
jump            SELF loop_min
min_style       cg
fix             1 all box/relax aniso 0.0 vmax 0.01
minimize        1.0e-15 1.0e-15 10000 100000
Step Temp E_pair E_mol TotEng Press Volume
75059 1.0269832e-10    139.73748    1672.6639    1812.4014    120.32561    1650.1472
Loop time of 0.0109006 on 1 procs for 1 steps with 148 atoms

Minimization stats:
  Stopping criterion = linesearch alpha is zero
  Energy initial, next-to-last, final =
  Force two-norm initial, final = 98.4672 98.4672
  Force max component initial, final = 73.4949 73.4949
  Final line search alpha, max atom move = 1.01375e-12 7.45058e-11
  Iterations, force evaluations = 1 55

unfix           1
min_style       fire
variable        tempstp    equal $(step)
variable        tempstp    equal 75060
variable        CellMinStep equal 75060
minimize        1.0e-15 1.0e-15 10000 100000
  Parameters for fire:
    dmax delaystep dtgrow dtshrink alpha0 alphashrink tmax tmin    integrator halfstepback
     0.1        20    1.1      0.5   0.25        0.99   10 0.02 eulerimplicit          yes
Step Temp E_pair E_mol TotEng Press
75060            0    139.73748    1672.6639    1812.4014    120.32561
Loop time of 0.0347049 on 1 procs for 201 steps with 148 atoms

Minimization stats:
  Stopping criterion = energy tolerance
  Energy initial, next-to-last, final =
  Force two-norm initial, final = 4.0766e-05 3.44606e-05
  Force max component initial, final = 1.01011e-05 8.44067e-06
  Final line search alpha, max atom move = 0 0
  Iterations, force evaluations = 201 201

variable        AtomMinStep equal 75060
variable        temppe     equal $(pe)
variable        temppe     equal 1812.4013894600871026
variable        min_E      equal abs(1812.40138946064-1812.40138946009)
jump SELF break_min
undump          NiPyC2_relax_sc211_ortho_functionalized_CH2-NH2_xyzmov

# Dump last snapshot for restart
variable curr_lx equal lx
variable curr_ly equal ly
variable curr_lz equal lz
change_box all x final 0 15.0870083559105 y final 0 10.5999108781088 z final 0 10.3185186472168
  triclinic box = (0 0.961745 -0.0221198) to (15.087 11.5617 10.2964) with tilt (0 -0.228574 0)
  triclinic box = (0 0 -0.0221198) to (15.087 10.5999 10.2964) with tilt (0 -0.228574 0)
  triclinic box = (0 0 0) to (15.087 10.5999 10.3185) with tilt (0 -0.228574 0)

reset_timestep 0
dump            NiPyC2_relax_sc211_ortho_functionalized_CH2-NH2_restart all atom 1 NiPyC2_relax_sc211_ortho_functionalized_CH2-NH2_restart.lammpstrj
dump_modify     NiPyC2_relax_sc211_ortho_functionalized_CH2-NH2_restart scale no sort id
run 0
Step Temp E_pair E_mol TotEng Press
0 6.880587e-11    139.73745    1672.6639    1812.4014     120.3146
Loop time of 7.78004e-07 on 1 procs for 0 steps with 148 atoms

undump          NiPyC2_relax_sc211_ortho_functionalized_CH2-NH2_restart
