units           real
atom_style      full
boundary        p p p

pair_style      lj/cut 5.000
bond_style      harmonic
angle_style     hybrid cosine/periodic fourier
dihedral_style  harmonic
improper_style  fourier

dielectric      1.0
special_bonds   lj/coul 0.0 0.0 1.0
pair_modify     tail yes mix arithmetic
box tilt        large
read_data       data.NiPyC2_relax_sc211_meta_functionalized_CH2-NH2
  triclinic box = (0 0 0) to (12.5056 12.5234 10.2743) with tilt (0 -0.227594 0)
  reading atoms ...
  148 atoms
  scanning bonds ...
  scanning angles ...
  scanning dihedrals ...
  scanning impropers ...
  reading bonds ...
  168 bonds
  reading angles ...
  316 angles
  reading dihedrals ...
  352 dihedrals
  reading impropers ...
  192 impropers

#### Atom Groupings ####
group           fram     id   1:148
148 atoms in group fram
#### END Atom Groupings ####

dump            NiPyC2_relax_sc211_meta_functionalized_CH2-NH2_xyzmov all xyz 20000 NiPyC2_relax_sc211_meta_functionalized_CH2-NH2_mov.xyz
dump_modify     NiPyC2_relax_sc211_meta_functionalized_CH2-NH2_xyzmov element Ni O N C H C N
min_style       cg
print           "MinStep,CellMinStep,AtomMinStep,FinalStep,Energy,EDiff" file NiPyC2_relax_sc211_meta_functionalized_CH2-NH2.min.csv screen no
variable        min_eval   equal 1.00e-06
variable        prev_E     equal 50000.00
variable        iter       loop 100000
label           loop_min
min_style       cg
fix             1 all box/relax aniso 0.0 vmax 0.01
minimize        1.0e-15 1.0e-15 10000 100000
  update every 1 steps, delay 0 steps, check yes
Step Temp E_pair E_mol TotEng Press Volume
0            0    72706.491    2241.4141    74947.905     12364220    1609.0819
Loop time of 0.120884 on 1 procs for 306 steps with 148 atoms

Minimization stats:
  Stopping criterion = linesearch alpha is zero
  Energy initial, next-to-last, final =
  Force two-norm initial, final = 1.04793e+06 123.541
  Force max component initial, final = 504521 85.1931
  Final line search alpha, max atom move = 4.81687e-13 4.10364e-11
  Iterations, force evaluations = 306 590

unfix           1
min_style       fire
variable        tempstp    equal $(step)
variable        tempstp    equal 306
variable        CellMinStep equal 306
minimize        1.0e-15 1.0e-15 10000 100000
  Parameters for fire:
    dmax delaystep dtgrow dtshrink alpha0 alphashrink tmax tmin    integrator halfstepback
     0.1        20    1.1      0.5   0.25        0.99   10 0.02 eulerimplicit          yes
Step Temp E_pair E_mol TotEng Press
306            0    162.94789    1651.9781     1814.926    2766.6295
Loop time of 0.94615 on 1 procs for 5527 steps with 148 atoms

Minimization stats:
  Stopping criterion = energy tolerance
  Energy initial, next-to-last, final =
  Force two-norm initial, final = 49.8677 3.54702e-05
  Force max component initial, final = 10.7513 8.0148e-06
  Final line search alpha, max atom move = 0 0
  Iterations, force evaluations = 5527 5527

variable        AtomMinStep equal 306
variable        temppe     equal $(pe)
variable        temppe     equal 1738.1170960506385654
variable        min_E      equal abs(50000-1738.11709605064)
variable        prev_E     equal 1738.11709605064
next            iter
jump            SELF loop_min
min_style       cg
fix             1 all box/relax aniso 0.0 vmax 0.01
minimize        1.0e-15 1.0e-15 10000 100000
Step Temp E_pair E_mol TotEng Press Volume
5833 8.2237167e-11     112.2997    1625.8174    1738.1171   -11119.017    1546.1479
Loop time of 0.0194936 on 1 procs for 21 steps with 148 atoms

Minimization stats:
  Stopping criterion = linesearch alpha is zero
  Energy initial, next-to-last, final =
  Force two-norm initial, final = 578.304 54.1734
  Force max component initial, final = 560.924 41.0198
  Final line search alpha, max atom move = 3.28755e-12 1.34855e-10
  Iterations, force evaluations = 21 95

unfix           1
min_style       fire
variable        tempstp    equal $(step)
variable        tempstp    equal 5854
variable        CellMinStep equal 5854
minimize        1.0e-15 1.0e-15 10000 100000
  Parameters for fire:
    dmax delaystep dtgrow dtshrink alpha0 alphashrink tmax tmin    integrator halfstepback
     0.1        20    1.1      0.5   0.25        0.99   10 0.02 eulerimplicit          yes
Step Temp E_pair E_mol TotEng Press
5854            0    126.86693    1608.2621     1735.129    81.892952
Loop time of 0.857101 on 1 procs for 4965 steps with 148 atoms

Minimization stats:
  Stopping criterion = energy tolerance
  Energy initial, next-to-last, final =
  Force two-norm initial, final = 23.3655 5.19129e-05
  Force max component initial, final = 7.14718 9.77835e-06
  Final line search alpha, max atom move = 0 0
  Iterations, force evaluations = 4965 4965

variable        AtomMinStep equal 5854
variable        temppe     equal $(pe)
variable        temppe     equal 1733.7142046656479124
variable        min_E      equal abs(1738.11709605064-1733.71420466565)
variable        prev_E     equal 1733.71420466565
next            iter
jump            SELF loop_min
min_style       cg
fix             1 all box/relax aniso 0.0 vmax 0.01
minimize        1.0e-15 1.0e-15 10000 100000
Step Temp E_pair E_mol TotEng Press Volume
10819 2.0717857e-10    122.11747    1611.5967    1733.7142   -1511.2986    1534.3181
Loop time of 0.0115204 on 1 procs for 3 steps with 148 atoms

Minimization stats:
  Stopping criterion = linesearch alpha is zero
  Energy initial, next-to-last, final =
  Force two-norm initial, final = 228.164 27.962
  Force max component initial, final = 202.788 16.9773
  Final line search alpha, max atom move = 8.96911e-12 1.52271e-10
  Iterations, force evaluations = 3 57

unfix           1
min_style       fire
variable        tempstp    equal $(step)
variable        tempstp    equal 10822
variable        CellMinStep equal 10822
minimize        1.0e-15 1.0e-15 10000 100000
  Parameters for fire:
    dmax delaystep dtgrow dtshrink alpha0 alphashrink tmax tmin    integrator halfstepback
     0.1        20    1.1      0.5   0.25        0.99   10 0.02 eulerimplicit          yes
Step Temp E_pair E_mol TotEng Press
10822            0    123.02125    1610.3112    1733.3325    -369.7452
Loop time of 0.583138 on 1 procs for 3409 steps with 148 atoms

Minimization stats:
  Stopping criterion = energy tolerance
  Energy initial, next-to-last, final =
  Force two-norm initial, final = 21.5114 3.81764e-05
  Force max component initial, final = 3.51988 6.8966e-06
  Final line search alpha, max atom move = 0 0
  Iterations, force evaluations = 3409 3409

variable        AtomMinStep equal 10822
variable        temppe     equal $(pe)
variable        temppe     equal 1732.9689177445034147
variable        min_E      equal abs(1733.71420466565-1732.9689177445)
variable        prev_E     equal 1732.9689177445
next            iter
jump            SELF loop_min
min_style       cg
fix             1 all box/relax aniso 0.0 vmax 0.01
minimize        1.0e-15 1.0e-15 10000 100000
Step Temp E_pair E_mol TotEng Press Volume
14231 9.7755064e-11    123.06831    1609.9006    1732.9689    -557.5442    1534.7516
Loop time of 0.0114357 on 1 procs for 3 steps with 148 atoms

Minimization stats:
  Stopping criterion = linesearch alpha is zero
  Energy initial, next-to-last, final =
  Force two-norm initial, final = 192.326 23.1671
  Force max component initial, final = 153.846 10.0184
  Final line search alpha, max atom move = 1.417e-11 1.41961e-10
  Iterations, force evaluations = 3 57

unfix           1
min_style       fire
variable        tempstp    equal $(step)
variable        tempstp    equal 14234
variable        CellMinStep equal 14234
minimize        1.0e-15 1.0e-15 10000 100000
  Parameters for fire:
    dmax delaystep dtgrow dtshrink alpha0 alphashrink tmax tmin    integrator halfstepback
     0.1        20    1.1      0.5   0.25        0.99   10 0.02 eulerimplicit          yes
Step Temp E_pair E_mol TotEng Press
14234            0    123.21028    1609.4427     1732.653   -285.49051
Loop time of 0.548723 on 1 procs for 3200 steps with 148 atoms

Minimization stats:
  Stopping criterion = energy tolerance
  Energy initial, next-to-last, final =
  Force two-norm initial, final = 19.8586 4.54404e-05
  Force max component initial, final = 3.26736 8.11189e-06
  Final line search alpha, max atom move = 0 0
  Iterations, force evaluations = 3200 3200

variable        AtomMinStep equal 14234
variable        temppe     equal $(pe)
variable        temppe     equal 1732.357385545602483
variable        min_E      equal abs(1732.9689177445-1732.3573855456)
variable        prev_E     equal 1732.3573855456
next            iter
jump            SELF loop_min
min_style       cg
fix             1 all box/relax aniso 0.0 vmax 0.01
minimize        1.0e-15 1.0e-15 10000 100000
Step Temp E_pair E_mol TotEng Press Volume
17434 1.1644437e-10    123.52061    1608.8368    1732.3574   -109.00008    1535.9264
Loop time of 0.0128133 on 1 procs for 3 steps with 148 atoms

Minimization stats:
  Stopping criterion = linesearch alpha is zero
  Energy initial, next-to-last, final =
  Force two-norm initial, final = 170.935 20.6721
  Force max component initial, final = 124.568 6.68324
  Final line search alpha, max atom move = 1.99414e-11 1.33273e-10
  Iterations, force evaluations = 3 57

unfix           1
min_style       fire
variable        tempstp    equal $(step)
variable        tempstp    equal 17437
variable        CellMinStep equal 17437
minimize        1.0e-15 1.0e-15 10000 100000
  Parameters for fire:
    dmax delaystep dtgrow dtshrink alpha0 alphashrink tmax tmin    integrator halfstepback
     0.1        20    1.1      0.5   0.25        0.99   10 0.02 eulerimplicit          yes
Step Temp E_pair E_mol TotEng Press
17437            0    123.33716    1608.7711    1732.1082   -232.25762
Loop time of 0.546088 on 1 procs for 3162 steps with 148 atoms

Minimization stats:
  Stopping criterion = energy tolerance
  Energy initial, next-to-last, final =
  Force two-norm initial, final = 18.5134 3.81789e-05
  Force max component initial, final = 3.03466 7.32795e-06
  Final line search alpha, max atom move = 0 0
  Iterations, force evaluations = 3162 3162

variable        AtomMinStep equal 17437
variable        temppe     equal $(pe)
variable        temppe     equal 1731.9594101128921011
variable        min_E      equal abs(1732.3573855456-1731.95941011289)
variable        prev_E     equal 1731.95941011289
next            iter
jump            SELF loop_min
min_style       cg
fix             1 all box/relax aniso 0.0 vmax 0.01
minimize        1.0e-15 1.0e-15 10000 100000
Step Temp E_pair E_mol TotEng Press Volume
20599 1.0416982e-10    123.82694    1608.1325    1731.9594    80.508026    1537.3972
Loop time of 0.0131884 on 1 procs for 3 steps with 148 atoms

Minimization stats:
  Stopping criterion = linesearch alpha is zero
  Energy initial, next-to-last, final =
  Force two-norm initial, final = 156.854 19.1871
  Force max component initial, final = 114.681 5.47329
  Final line search alpha, max atom move = 2.37932e-11 1.30227e-10
  Iterations, force evaluations = 3 57

unfix           1
min_style       fire
variable        tempstp    equal $(step)
variable        tempstp    equal 20602
variable        CellMinStep equal 20602
minimize        1.0e-15 1.0e-15 10000 100000
  Parameters for fire:
    dmax delaystep dtgrow dtshrink alpha0 alphashrink tmax tmin    integrator halfstepback
     0.1        20    1.1      0.5   0.25        0.99   10 0.02 eulerimplicit          yes
Step Temp E_pair E_mol TotEng Press
20602            0    123.49698     1608.242     1731.739   -207.04902
Loop time of 0.512511 on 1 procs for 2992 steps with 148 atoms

Minimization stats:
  Stopping criterion = energy tolerance
  Energy initial, next-to-last, final =
  Force two-norm initial, final = 17.3875 4.44573e-05
  Force max component initial, final = 2.83752 8.63619e-06
  Final line search alpha, max atom move = 0 0
  Iterations, force evaluations = 2992 2992

variable        AtomMinStep equal 20602
variable        temppe     equal $(pe)
variable        temppe     equal 1731.5516827134506457
variable        min_E      equal abs(1731.95941011289-1731.55168271345)
variable        prev_E     equal 1731.55168271345
next            iter
jump            SELF loop_min
min_style       cg
fix             1 all box/relax aniso 0.0 vmax 0.01
minimize        1.0e-15 1.0e-15 10000 100000
Step Temp E_pair E_mol TotEng Press Volume
23594 1.631182e-10    123.94868     1607.603    1731.5517    143.37266    1538.9499
Loop time of 0.0131173 on 1 procs for 2 steps with 148 atoms

Minimization stats:
  Stopping criterion = linesearch alpha is zero
  Energy initial, next-to-last, final =
  Force two-norm initial, final = 145.2 53.629
  Force max component initial, final = 109.986 39.1463
  Final line search alpha, max atom move = 3.08117e-12 1.20616e-10
  Iterations, force evaluations = 2 55

unfix           1
min_style       fire
variable        tempstp    equal $(step)
variable        tempstp    equal 23596
variable        CellMinStep equal 23596
minimize        1.0e-15 1.0e-15 10000 100000
  Parameters for fire:
    dmax delaystep dtgrow dtshrink alpha0 alphashrink tmax tmin    integrator halfstepback
     0.1        20    1.1      0.5   0.25        0.99   10 0.02 eulerimplicit          yes
Step Temp E_pair E_mol TotEng Press
23596            0     124.6624    1606.7381    1731.4005    1017.6132
Loop time of 0.553918 on 1 procs for 3238 steps with 148 atoms

Minimization stats:
  Stopping criterion = energy tolerance
  Energy initial, next-to-last, final =
  Force two-norm initial, final = 15.0759 4.38928e-05
  Force max component initial, final = 2.44618 7.75673e-06
  Final line search alpha, max atom move = 0 0
  Iterations, force evaluations = 3238 3238

variable        AtomMinStep equal 23596
variable        temppe     equal $(pe)
variable        temppe     equal 1731.2930667398522928
variable        min_E      equal abs(1731.55168271345-1731.29306673985)
variable        prev_E     equal 1731.29306673985
next            iter
jump            SELF loop_min
min_style       cg
fix             1 all box/relax aniso 0.0 vmax 0.01
minimize        1.0e-15 1.0e-15 10000 100000
Step Temp E_pair E_mol TotEng Press Volume
26834 1.0821112e-10    124.73527    1606.5578    1731.2931    775.41022     1539.173
Loop time of 0.0123813 on 1 procs for 5 steps with 148 atoms

Minimization stats:
  Stopping criterion = linesearch alpha is zero
  Energy initial, next-to-last, final =
  Force two-norm initial, final = 132.339 24.0396
  Force max component initial, final = 116.654 12.7197
  Final line search alpha, max atom move = 1.11625e-11 1.41984e-10
  Iterations, force evaluations = 5 61

unfix           1
min_style       fire
variable        tempstp    equal $(step)
variable        tempstp    equal 26839
variable        CellMinStep equal 26839
minimize        1.0e-15 1.0e-15 10000 100000
  Parameters for fire:
    dmax delaystep dtgrow dtshrink alpha0 alphashrink tmax tmin    integrator halfstepback
     0.1        20    1.1      0.5   0.25        0.99   10 0.02 eulerimplicit          yes
Step Temp E_pair E_mol TotEng Press
26839            0    123.84865     1607.218    1731.0666   -178.44121
Loop time of 0.525976 on 1 procs for 3064 steps with 148 atoms

Minimization stats:
  Stopping criterion = energy tolerance
  Energy initial, next-to-last, final =
  Force two-norm initial, final = 19.29 4.58401e-05
  Force max component initial, final = 5.02482 8.89556e-06
  Final line search alpha, max atom move = 0 0
  Iterations, force evaluations = 3064 3064

variable        AtomMinStep equal 26839
variable        temppe     equal $(pe)
variable        temppe     equal 1730.8603786415594641
variable        min_E      equal abs(1731.29306673985-1730.86037864156)
variable        prev_E     equal 1730.86037864156
next            iter
jump            SELF loop_min
min_style       cg
fix             1 all box/relax aniso 0.0 vmax 0.01
minimize        1.0e-15 1.0e-15 10000 100000
Step Temp E_pair E_mol TotEng Press Volume
29903 1.4288831e-10    124.55107    1606.3093    1730.8604    408.33228    1542.1999
Loop time of 0.0131833 on 1 procs for 4 steps with 148 atoms

Minimization stats:
  Stopping criterion = linesearch alpha is zero
  Energy initial, next-to-last, final =
  Force two-norm initial, final = 120.639 51.2736
  Force max component initial, final = 101.888 48.8373
  Final line search alpha, max atom move = 4.11203e-12 2.0082e-10
  Iterations, force evaluations = 4 61

unfix           1
min_style       fire
variable        tempstp    equal $(step)
variable        tempstp    equal 29907
variable        CellMinStep equal 29907
minimize        1.0e-15 1.0e-15 10000 100000
  Parameters for fire:
    dmax delaystep dtgrow dtshrink alpha0 alphashrink tmax tmin    integrator halfstepback
     0.1        20    1.1      0.5   0.25        0.99   10 0.02 eulerimplicit          yes
Step Temp E_pair E_mol TotEng Press
29907            0    124.42712    1606.2194    1730.6465    616.65489
Loop time of 0.537279 on 1 procs for 3128 steps with 148 atoms

Minimization stats:
  Stopping criterion = energy tolerance
  Energy initial, next-to-last, final =
  Force two-norm initial, final = 13.1119 3.68285e-05
  Force max component initial, final = 2.08255 6.70555e-06
  Final line search alpha, max atom move = 0 0
  Iterations, force evaluations = 3128 3128

variable        AtomMinStep equal 29907
variable        temppe     equal $(pe)
variable        temppe     equal 1730.635089530858977
variable        min_E      equal abs(1730.86037864156-1730.63508953086)
variable        prev_E     equal 1730.63508953086
next            iter
jump            SELF loop_min
min_style       cg
fix             1 all box/relax aniso 0.0 vmax 0.01
minimize        1.0e-15 1.0e-15 10000 100000
Step Temp E_pair E_mol TotEng Press Volume
33035 8.1205671e-11    124.68194    1605.9531    1730.6351    360.06343      1543.35
Loop time of 0.0145997 on 1 procs for 7 steps with 148 atoms

Minimization stats:
  Stopping criterion = linesearch alpha is zero
  Energy initial, next-to-last, final =
  Force two-norm initial, final = 114.882 38.8801
  Force max component initial, final = 96.0517 30.6886
  Final line search alpha, max atom move = 5.34995e-12 1.64182e-10
  Iterations, force evaluations = 7 67

unfix           1
min_style       fire
variable        tempstp    equal $(step)
variable        tempstp    equal 33042
variable        CellMinStep equal 33042
minimize        1.0e-15 1.0e-15 10000 100000
  Parameters for fire:
    dmax delaystep dtgrow dtshrink alpha0 alphashrink tmax tmin    integrator halfstepback
     0.1        20    1.1      0.5   0.25        0.99   10 0.02 eulerimplicit          yes
Step Temp E_pair E_mol TotEng Press
33042            0    123.76743    1606.6078    1730.3752    -734.6189
Loop time of 0.572623 on 1 procs for 3335 steps with 148 atoms

Minimization stats:
  Stopping criterion = energy tolerance
  Energy initial, next-to-last, final =
  Force two-norm initial, final = 16.9082 3.54014e-05
  Force max component initial, final = 2.74357 6.47392e-06
  Final line search alpha, max atom move = 0 0
  Iterations, force evaluations = 3335 3335

variable        AtomMinStep equal 33042
variable        temppe     equal $(pe)
variable        temppe     equal 1730.0728116070395117
variable        min_E      equal abs(1730.63508953086-1730.07281160704)
variable        prev_E     equal 1730.07281160704
next            iter
jump            SELF loop_min
min_style       cg
fix             1 all box/relax aniso 0.0 vmax 0.01
minimize        1.0e-15 1.0e-15 10000 100000
Step Temp E_pair E_mol TotEng Press Volume
36377 7.3646241e-11     124.4703    1605.6025    1730.0728   -79.251272     1547.089
Loop time of 0.0111512 on 1 procs for 1 steps with 148 atoms

Minimization stats:
  Stopping criterion = linesearch alpha is zero
  Energy initial, next-to-last, final =
  Force two-norm initial, final = 101.607 101.607
  Force max component initial, final = 77.3056 77.3056
  Final line search alpha, max atom move = 9.63783e-13 7.45058e-11
  Iterations, force evaluations = 1 55

unfix           1
min_style       fire
variable        tempstp    equal $(step)
variable        tempstp    equal 36378
variable        CellMinStep equal 36378
minimize        1.0e-15 1.0e-15 10000 100000
  Parameters for fire:
    dmax delaystep dtgrow dtshrink alpha0 alphashrink tmax tmin    integrator halfstepback
     0.1        20    1.1      0.5   0.25        0.99   10 0.02 eulerimplicit          yes
Step Temp E_pair E_mol TotEng Press
36378            0     124.4703    1605.6025    1730.0728   -79.251272
Loop time of 0.0100594 on 1 procs for 55 steps with 148 atoms

Minimization stats:
  Stopping criterion = energy tolerance
  Energy initial, next-to-last, final =
  Force two-norm initial, final = 3.54014e-05 3.12402e-05
  Force max component initial, final = 6.47392e-06 6.02179e-06
  Final line search alpha, max atom move = 0 0
  Iterations, force evaluations = 55 55

variable        AtomMinStep equal 36378
variable        temppe     equal $(pe)
variable        temppe     equal 1730.0728116069326461
variable        min_E      equal abs(1730.07281160704-1730.07281160693)
jump SELF break_min
undump          NiPyC2_relax_sc211_meta_functionalized_CH2-NH2_xyzmov

# Dump last snapshot for restart
variable curr_lx equal lx
variable curr_ly equal ly
variable curr_lz equal lz
change_box all x final 0 14.1037881865562 y final 0 9.29593869901403 z final 0 11.8001161296943
  triclinic box = (0 1.61373 -0.762919) to (14.1038 10.9097 11.0372) with tilt (0 -0.261394 0)
  triclinic box = (0 0 -0.762919) to (14.1038 9.29594 11.0372) with tilt (0 -0.261394 0)
  triclinic box = (0 0 0) to (14.1038 9.29594 11.8001) with tilt (0 -0.261394 0)

reset_timestep 0
dump            NiPyC2_relax_sc211_meta_functionalized_CH2-NH2_restart all atom 1 NiPyC2_relax_sc211_meta_functionalized_CH2-NH2_restart.lammpstrj
dump_modify     NiPyC2_relax_sc211_meta_functionalized_CH2-NH2_restart scale no sort id
run 0
Step Temp E_pair E_mol TotEng Press
0 6.1087374e-11     124.4703    1605.6025    1730.0728   -79.251869
Loop time of 7.8202e-07 on 1 procs for 0 steps with 148 atoms

undump          NiPyC2_relax_sc211_meta_functionalized_CH2-NH2_restart
