units           real
atom_style      full
boundary        p p p

pair_style      lj/cut 5.000
bond_style      harmonic
angle_style     hybrid fourier cosine/periodic
dihedral_style  harmonic
improper_style  fourier

pair_modify     tail yes mix arithmetic
dielectric      1.0
special_bonds   lj/coul 0.0 0.0 1.0
box tilt        large
read_data       data.NiPyC2_relax_sc211_ortho_functionalized_P-2CH3
  triclinic box = (0 0 0) to (12.5056 12.5234 10.2743) with tilt (0 -0.227594 0)
  reading atoms ...
  172 atoms
  scanning bonds ...
  scanning angles ...
  scanning dihedrals ...
  scanning impropers ...
  reading bonds ...
  192 bonds
  reading angles ...
  364 angles
  reading dihedrals ...
  384 dihedrals
  reading impropers ...
  168 impropers

#### Atom Groupings ####
group           fram     id   1:172
172 atoms in group fram
#### END Atom Groupings ####

dump            NiPyC2_relax_sc211_ortho_functionalized_P-2CH3_xyzmov all xyz 20000 NiPyC2_relax_sc211_ortho_functionalized_P-2CH3_mov.xyz
dump_modify     NiPyC2_relax_sc211_ortho_functionalized_P-2CH3_xyzmov element Ni O N C H P C
min_style       cg
print           "MinStep,CellMinStep,AtomMinStep,FinalStep,Energy,EDiff" file NiPyC2_relax_sc211_ortho_functionalized_P-2CH3.min.csv screen no
variable        min_eval   equal 1.00e-06
variable        prev_E     equal 50000.00
variable        iter       loop 100000
label           loop_min
min_style       cg
fix             1 all box/relax aniso 0.0 vmax 0.01
minimize        1.0e-15 1.0e-15 10000 100000
  update every 1 steps, delay 0 steps, check yes
Step Temp E_pair E_mol TotEng Press Volume
0            0 5.4906994e+11    2315.6345 5.4906994e+11 9.3590969e+13    1609.0819
Loop time of 0.234751 on 1 procs for 654 steps with 172 atoms

Minimization stats:
  Stopping criterion = linesearch alpha is zero
  Energy initial, next-to-last, final =
  Force two-norm initial, final = 1.5083e+13 81.3407
  Force max component initial, final = 4.98271e+12 51.8358
  Final line search alpha, max atom move = 1.4654e-12 7.59603e-11
  Iterations, force evaluations = 654 1029

unfix           1
min_style       fire
variable        tempstp    equal $(step)
variable        tempstp    equal 654
variable        CellMinStep equal 654
minimize        1.0e-15 1.0e-15 10000 100000
  Parameters for fire:
    dmax delaystep dtgrow dtshrink alpha0 alphashrink tmax tmin    integrator halfstepback
     0.1        20    1.1      0.5   0.25        0.99   10 0.02 eulerimplicit          yes
Step Temp E_pair E_mol TotEng Press
654            0    117.90097    1889.6095    2007.5105    313.27327
Loop time of 1.96495 on 1 procs for 10000 steps with 172 atoms

Minimization stats:
  Stopping criterion = max iterations
  Energy initial, next-to-last, final =
  Force two-norm initial, final = 56.0486 0.00165665
  Force max component initial, final = 13.1529 0.000808157
  Final line search alpha, max atom move = 0 0
  Iterations, force evaluations = 10000 10000

variable        AtomMinStep equal 654
variable        temppe     equal $(pe)
variable        temppe     equal 1960.8030518317095812
variable        min_E      equal abs(50000-1960.80305183171)
variable        prev_E     equal 1960.80305183171
next            iter
jump            SELF loop_min
min_style       cg
fix             1 all box/relax aniso 0.0 vmax 0.01
minimize        1.0e-15 1.0e-15 10000 100000
Step Temp E_pair E_mol TotEng Press Volume
10654 2.9594605e-07    89.865639    1870.9374    1960.8031   -7181.0728    1767.8395
Loop time of 0.0173183 on 1 procs for 11 steps with 172 atoms

Minimization stats:
  Stopping criterion = linesearch alpha is zero
  Energy initial, next-to-last, final =
  Force two-norm initial, final = 380.679 40.2347
  Force max component initial, final = 342.752 35.0127
  Final line search alpha, max atom move = 4.81484e-12 1.68581e-10
  Iterations, force evaluations = 11 73

unfix           1
min_style       fire
variable        tempstp    equal $(step)
variable        tempstp    equal 10665
variable        CellMinStep equal 10665
minimize        1.0e-15 1.0e-15 10000 100000
  Parameters for fire:
    dmax delaystep dtgrow dtshrink alpha0 alphashrink tmax tmin    integrator halfstepback
     0.1        20    1.1      0.5   0.25        0.99   10 0.02 eulerimplicit          yes
Step Temp E_pair E_mol TotEng Press
10665            0    102.01483     1857.764    1959.7788   -465.43814
Loop time of 1.36253 on 1 procs for 6874 steps with 172 atoms

Minimization stats:
  Stopping criterion = energy tolerance
  Energy initial, next-to-last, final =
  Force two-norm initial, final = 19.5678 3.50155e-05
  Force max component initial, final = 3.40601 1.68247e-05
  Final line search alpha, max atom move = 0 0
  Iterations, force evaluations = 6874 6874

variable        AtomMinStep equal 10665
variable        temppe     equal $(pe)
variable        temppe     equal 1959.5674114421044578
variable        min_E      equal abs(1960.80305183171-1959.5674114421)
variable        prev_E     equal 1959.5674114421
next            iter
jump            SELF loop_min
min_style       cg
fix             1 all box/relax aniso 0.0 vmax 0.01
minimize        1.0e-15 1.0e-15 10000 100000
Step Temp E_pair E_mol TotEng Press Volume
17539 1.368528e-10    96.245125    1863.3223    1959.5674   -3299.1589     1756.239
Loop time of 0.012539 on 1 procs for 2 steps with 172 atoms

Minimization stats:
  Stopping criterion = linesearch alpha is zero
  Energy initial, next-to-last, final =
  Force two-norm initial, final = 208.683 26.3833
  Force max component initial, final = 200.068 21.0055
  Final line search alpha, max atom move = 1.41573e-11 2.97381e-10
  Iterations, force evaluations = 2 53

unfix           1
min_style       fire
variable        tempstp    equal $(step)
variable        tempstp    equal 17541
variable        CellMinStep equal 17541
minimize        1.0e-15 1.0e-15 10000 100000
  Parameters for fire:
    dmax delaystep dtgrow dtshrink alpha0 alphashrink tmax tmin    integrator halfstepback
     0.1        20    1.1      0.5   0.25        0.99   10 0.02 eulerimplicit          yes
Step Temp E_pair E_mol TotEng Press
17541            0    99.976712    1859.4367    1959.4134    336.13145
Loop time of 0.865731 on 1 procs for 4359 steps with 172 atoms

Minimization stats:
  Stopping criterion = energy tolerance
  Energy initial, next-to-last, final =
  Force two-norm initial, final = 13.1008 3.49883e-05
  Force max component initial, final = 2.94633 1.46177e-05
  Final line search alpha, max atom move = 0 0
  Iterations, force evaluations = 4359 4359

variable        AtomMinStep equal 17541
variable        temppe     equal $(pe)
variable        temppe     equal 1959.152023408184732
variable        min_E      equal abs(1959.5674114421-1959.15202340818)
variable        prev_E     equal 1959.15202340818
next            iter
jump            SELF loop_min
min_style       cg
fix             1 all box/relax aniso 0.0 vmax 0.01
minimize        1.0e-15 1.0e-15 10000 100000
Step Temp E_pair E_mol TotEng Press Volume
21900 1.1123768e-10    98.027472    1861.1246     1959.152   -2098.4536     1752.674
Loop time of 0.0148383 on 1 procs for 5 steps with 172 atoms

Minimization stats:
  Stopping criterion = linesearch alpha is zero
  Energy initial, next-to-last, final =
  Force two-norm initial, final = 160.46 49.3681
  Force max component initial, final = 156.057 39.4063
  Final line search alpha, max atom move = 3.87958e-12 1.5288e-10
  Iterations, force evaluations = 5 61

unfix           1
min_style       fire
variable        tempstp    equal $(step)
variable        tempstp    equal 21905
variable        CellMinStep equal 21905
minimize        1.0e-15 1.0e-15 10000 100000
  Parameters for fire:
    dmax delaystep dtgrow dtshrink alpha0 alphashrink tmax tmin    integrator halfstepback
     0.1        20    1.1      0.5   0.25        0.99   10 0.02 eulerimplicit          yes
Step Temp E_pair E_mol TotEng Press
21905            0    100.35589    1858.6001     1958.956   -713.37968
Loop time of 0.760535 on 1 procs for 3787 steps with 172 atoms

Minimization stats:
  Stopping criterion = energy tolerance
  Energy initial, next-to-last, final =
  Force two-norm initial, final = 9.29905 3.86822e-05
  Force max component initial, final = 1.36002 1.35073e-05
  Final line search alpha, max atom move = 0 0
  Iterations, force evaluations = 3787 3787

variable        AtomMinStep equal 21905
variable        temppe     equal $(pe)
variable        temppe     equal 1958.8974877469322564
variable        min_E      equal abs(1959.15202340818-1958.89748774693)
variable        prev_E     equal 1958.89748774693
next            iter
jump            SELF loop_min
min_style       cg
fix             1 all box/relax aniso 0.0 vmax 0.01
minimize        1.0e-15 1.0e-15 10000 100000
Step Temp E_pair E_mol TotEng Press Volume
25692 1.4089585e-10    99.159713    1859.7378    1958.8975   -1521.4324    1750.9805
Loop time of 0.0134777 on 1 procs for 3 steps with 172 atoms

Minimization stats:
  Stopping criterion = linesearch alpha is zero
  Energy initial, next-to-last, final =
  Force two-norm initial, final = 128.992 9.59483
  Force max component initial, final = 124.523 3.36771
  Final line search alpha, max atom move = 8.84944e-11 2.98023e-10
  Iterations, force evaluations = 3 57

unfix           1
min_style       fire
variable        tempstp    equal $(step)
variable        tempstp    equal 25695
variable        CellMinStep equal 25695
minimize        1.0e-15 1.0e-15 10000 100000
  Parameters for fire:
    dmax delaystep dtgrow dtshrink alpha0 alphashrink tmax tmin    integrator halfstepback
     0.1        20    1.1      0.5   0.25        0.99   10 0.02 eulerimplicit          yes
Step Temp E_pair E_mol TotEng Press
25695            0    100.92201    1857.9193    1958.8413     8.486378
Loop time of 0.648568 on 1 procs for 3254 steps with 172 atoms

Minimization stats:
  Stopping criterion = energy tolerance
  Energy initial, next-to-last, final =
  Force two-norm initial, final = 8.76938 4.38041e-05
  Force max component initial, final = 1.89168 1.37159e-05
  Final line search alpha, max atom move = 0 0
  Iterations, force evaluations = 3254 3254

variable        AtomMinStep equal 25695
variable        temppe     equal $(pe)
variable        temppe     equal 1958.8002225075838396
variable        min_E      equal abs(1958.89748774693-1958.80022250758)
variable        prev_E     equal 1958.80022250758
next            iter
jump            SELF loop_min
min_style       cg
fix             1 all box/relax aniso 0.0 vmax 0.01
minimize        1.0e-15 1.0e-15 10000 100000
Step Temp E_pair E_mol TotEng Press Volume
28949 1.4540717e-10    100.19997    1858.6003    1958.8002   -1001.5597    1749.5684
Loop time of 0.0131697 on 1 procs for 5 steps with 172 atoms

Minimization stats:
  Stopping criterion = linesearch alpha is zero
  Energy initial, next-to-last, final =
  Force two-norm initial, final = 104.83 17.996
  Force max component initial, final = 99.7309 14.5204
  Final line search alpha, max atom move = 3.66093e-11 5.31581e-10
  Iterations, force evaluations = 5 57

unfix           1
min_style       fire
variable        tempstp    equal $(step)
variable        tempstp    equal 28954
variable        CellMinStep equal 28954
minimize        1.0e-15 1.0e-15 10000 100000
  Parameters for fire:
    dmax delaystep dtgrow dtshrink alpha0 alphashrink tmax tmin    integrator halfstepback
     0.1        20    1.1      0.5   0.25        0.99   10 0.02 eulerimplicit          yes
Step Temp E_pair E_mol TotEng Press
28954            0    102.01311    1856.7315    1958.7446   -99.636495
Loop time of 0.612465 on 1 procs for 3043 steps with 172 atoms

Minimization stats:
  Stopping criterion = energy tolerance
  Energy initial, next-to-last, final =
  Force two-norm initial, final = 8.22107 4.23223e-05
  Force max component initial, final = 1.33453 1.26454e-05
  Final line search alpha, max atom move = 0 0
  Iterations, force evaluations = 3043 3043

variable        AtomMinStep equal 28954
variable        temppe     equal $(pe)
variable        temppe     equal 1958.704591006727469
variable        min_E      equal abs(1958.80022250758-1958.70459100673)
variable        prev_E     equal 1958.70459100673
next            iter
jump            SELF loop_min
min_style       cg
fix             1 all box/relax aniso 0.0 vmax 0.01
minimize        1.0e-15 1.0e-15 10000 100000
Step Temp E_pair E_mol TotEng Press Volume
31997 1.3279606e-10    101.14906    1857.5555    1958.7046   -589.21882    1748.4439
Loop time of 0.0129884 on 1 procs for 3 steps with 172 atoms

Minimization stats:
  Stopping criterion = linesearch alpha is zero
  Energy initial, next-to-last, final =
  Force two-norm initial, final = 82.2106 8.21736
  Force max component initial, final = 75.7208 5.08773
  Final line search alpha, max atom move = 1.69104e-10 8.60354e-10
  Iterations, force evaluations = 3 53

unfix           1
min_style       fire
variable        tempstp    equal $(step)
variable        tempstp    equal 32000
variable        CellMinStep equal 32000
minimize        1.0e-15 1.0e-15 10000 100000
  Parameters for fire:
    dmax delaystep dtgrow dtshrink alpha0 alphashrink tmax tmin    integrator halfstepback
     0.1        20    1.1      0.5   0.25        0.99   10 0.02 eulerimplicit          yes
Step Temp E_pair E_mol TotEng Press
32000            0     101.8403    1856.8423    1958.6826   -110.95901
Loop time of 0.551095 on 1 procs for 2759 steps with 172 atoms

Minimization stats:
  Stopping criterion = energy tolerance
  Energy initial, next-to-last, final =
  Force two-norm initial, final = 5.88743 3.79158e-05
  Force max component initial, final = 1.1759 1.05081e-05
  Final line search alpha, max atom move = 0 0
  Iterations, force evaluations = 2759 2759

variable        AtomMinStep equal 32000
variable        temppe     equal $(pe)
variable        temppe     equal 1958.6529602124246594
variable        min_E      equal abs(1958.70459100673-1958.65296021242)
variable        prev_E     equal 1958.65296021242
next            iter
jump            SELF loop_min
min_style       cg
fix             1 all box/relax aniso 0.0 vmax 0.01
minimize        1.0e-15 1.0e-15 10000 100000
Step Temp E_pair E_mol TotEng Press Volume
34759 1.053932e-10    101.60019    1857.0528     1958.653   -444.40494    1748.0863
Loop time of 0.0132711 on 1 procs for 1 steps with 172 atoms

Minimization stats:
  Stopping criterion = linesearch alpha is zero
  Energy initial, next-to-last, final =
  Force two-norm initial, final = 70.0756 70.0756
  Force max component initial, final = 63.5906 63.5906
  Final line search alpha, max atom move = 2.3433e-12 1.49012e-10
  Iterations, force evaluations = 1 53

unfix           1
min_style       fire
variable        tempstp    equal $(step)
variable        tempstp    equal 34760
variable        CellMinStep equal 34760
minimize        1.0e-15 1.0e-15 10000 100000
  Parameters for fire:
    dmax delaystep dtgrow dtshrink alpha0 alphashrink tmax tmin    integrator halfstepback
     0.1        20    1.1      0.5   0.25        0.99   10 0.02 eulerimplicit          yes
Step Temp E_pair E_mol TotEng Press
34760            0    101.60019    1857.0528     1958.653   -444.40494
Loop time of 0.0118826 on 1 procs for 55 steps with 172 atoms

Minimization stats:
  Stopping criterion = energy tolerance
  Energy initial, next-to-last, final =
  Force two-norm initial, final = 3.79158e-05 3.4509e-05
  Force max component initial, final = 1.05081e-05 9.56669e-06
  Final line search alpha, max atom move = 0 0
  Iterations, force evaluations = 55 55

variable        AtomMinStep equal 34760
variable        temppe     equal $(pe)
variable        temppe     equal 1958.6529602122811866
variable        min_E      equal abs(1958.65296021242-1958.65296021228)
jump SELF break_min
undump          NiPyC2_relax_sc211_ortho_functionalized_P-2CH3_xyzmov

# Dump last snapshot for restart
variable curr_lx equal lx
variable curr_ly equal ly
variable curr_lz equal lz
change_box all x final 0 16.5960406718615 y final 0 10.5159629928596 z final 0 10.0163462645695
  triclinic box = (0 1.00372 0.128966) to (16.596 11.5197 10.1453) with tilt (0 -0.22188 0)
  triclinic box = (0 0 0.128966) to (16.596 10.516 10.1453) with tilt (0 -0.22188 0)
  triclinic box = (0 0 0) to (16.596 10.516 10.0163) with tilt (0 -0.22188 0)

reset_timestep 0
dump            NiPyC2_relax_sc211_ortho_functionalized_P-2CH3_restart all atom 1 NiPyC2_relax_sc211_ortho_functionalized_P-2CH3_restart.lammpstrj
dump_modify     NiPyC2_relax_sc211_ortho_functionalized_P-2CH3_restart scale no sort id
run 0
Step Temp E_pair E_mol TotEng Press
0 9.1842735e-11    101.60018    1857.0528     1958.653   -444.40741
Loop time of 8.24977e-07 on 1 procs for 0 steps with 172 atoms

undump          NiPyC2_relax_sc211_ortho_functionalized_P-2CH3_restart
units           real
atom_style      full
boundary        p p p

pair_style      lj/cut 5.000
bond_style      harmonic
angle_style     hybrid fourier cosine/periodic
dihedral_style  harmonic
improper_style  fourier

special_bonds   lj/coul 0.0 0.0 1.0
pair_modify     tail yes mix arithmetic
dielectric      1.0
box tilt        large
read_data       data.NiPyC2_relax_sc211_ortho_functionalized_P-2CH3
  triclinic box = (0 0 0) to (12.5056 12.5234 10.2743) with tilt (0 -0.227594 0)
  reading atoms ...
  172 atoms
  scanning bonds ...
  scanning angles ...
  scanning dihedrals ...
  scanning impropers ...
  reading bonds ...
  192 bonds
  reading angles ...
  364 angles
  reading dihedrals ...
  384 dihedrals
  reading impropers ...
  168 impropers

#### Atom Groupings ####
group           fram     id   1:172
172 atoms in group fram
#### END Atom Groupings ####

dump            NiPyC2_relax_sc211_ortho_functionalized_P-2CH3_xyzmov all xyz 20000 NiPyC2_relax_sc211_ortho_functionalized_P-2CH3_mov.xyz
dump_modify     NiPyC2_relax_sc211_ortho_functionalized_P-2CH3_xyzmov element Ni O N C H P C
min_style       cg
print           "MinStep,CellMinStep,AtomMinStep,FinalStep,Energy,EDiff,vol,lx,ly,lz,xy,xz,yz" file NiPyC2_relax_sc211_ortho_functionalized_P-2CH3.min.csv screen no
variable        min_eval   equal 1.00e-06
variable        prev_E     equal 50000.00
variable        iter       loop 100000
label           loop_min
min_style       cg
variable        tempstp    equal $(step)
variable        tempstp    equal 0
variable        CellMinStep equal 0
minimize        1.0e-15 1.0e-15 10000 100000
  update every 1 steps, delay 0 steps, check yes
Step Temp E_pair E_mol TotEng Press
0            0 5.4906994e+11    2315.6345 5.4906994e+11 9.3590969e+13
Loop time of 0.626524 on 1 procs for 277 steps with 172 atoms

Minimization stats:
  Stopping criterion = energy tolerance
  Energy initial, next-to-last, final =
  Force two-norm initial, final = 1.43452e+13 2543.67
  Force max component initial, final = 4.98271e+12 1665.55
  Final line search alpha, max atom move = 3.66457e-09 6.10352e-06
  Iterations, force evaluations = 277 2654

variable        AtomMinStep equal 0
variable        temppe     equal $(pe)
variable        temppe     equal 2720.8776739756485767
variable        min_E      equal abs(50000-2720.87767397565)
variable        prev_E     equal 2720.87767397565
next            iter
jump            SELF loop_min
min_style       cg
variable        tempstp    equal $(step)
variable        tempstp    equal 277
variable        CellMinStep equal 277
minimize        1.0e-15 1.0e-15 10000 100000
Step Temp E_pair E_mol TotEng Press
277            0     551.8372    2169.0405    2720.8777    62779.368
Loop time of 0.00771761 on 1 procs for 1 steps with 172 atoms

Minimization stats:
  Stopping criterion = energy tolerance
  Energy initial, next-to-last, final =
  Force two-norm initial, final = 2543.67 2543.67
  Force max component initial, final = 1665.55 1665.55
  Final line search alpha, max atom move = 3.66457e-09 6.10352e-06
  Iterations, force evaluations = 1 28

variable        AtomMinStep equal 277
variable        temppe     equal $(pe)
variable        temppe     equal 2720.8776739756485767
variable        min_E      equal abs(2720.87767397565-2720.87767397565)
jump SELF break_min
undump          NiPyC2_relax_sc211_ortho_functionalized_P-2CH3_xyzmov

# Dump last snapshot for restart
variable curr_lx equal lx
variable curr_ly equal ly
variable curr_lz equal lz
change_box all x final 0 12.5056 y final 0 12.5234 z final 0 10.274279
  triclinic box = (0 0 0) to (12.5056 12.5234 10.2743) with tilt (0 -0.227594 0)
  triclinic box = (0 0 0) to (12.5056 12.5234 10.2743) with tilt (0 -0.227594 0)
  triclinic box = (0 0 0) to (12.5056 12.5234 10.2743) with tilt (0 -0.227594 0)

reset_timestep 0
dump            NiPyC2_relax_sc211_ortho_functionalized_P-2CH3_restart all atom 1 NiPyC2_relax_sc211_ortho_functionalized_P-2CH3_restart.lammpstrj
dump_modify     NiPyC2_relax_sc211_ortho_functionalized_P-2CH3_restart scale no sort id
run 0
Step Temp E_pair E_mol TotEng Press
0            0     551.8372    2169.0405    2720.8777    62779.368
Loop time of 9.47999e-07 on 1 procs for 0 steps with 172 atoms

undump          NiPyC2_relax_sc211_ortho_functionalized_P-2CH3_restart
