units           real
atom_style      full
boundary        p p p

pair_style      lj/cut 5.000
bond_style      harmonic
angle_style     hybrid cosine/periodic fourier
dihedral_style  harmonic
improper_style  fourier

special_bonds   lj/coul 0.0 0.0 1.0
pair_modify     tail yes mix arithmetic
dielectric      1.0
box tilt        large
read_data       data.NiPyC2_relax_sc211_meta_functionalized_P-2CH3
  triclinic box = (0 0 0) to (12.5056 12.5234 10.2743) with tilt (0 -0.227594 0)
  reading atoms ...
  172 atoms
  scanning bonds ...
  scanning angles ...
  scanning dihedrals ...
  scanning impropers ...
  reading bonds ...
  192 bonds
  reading angles ...
  364 angles
  reading dihedrals ...
  384 dihedrals
  reading impropers ...
  168 impropers

#### Atom Groupings ####
group           fram     id   1:172
172 atoms in group fram
#### END Atom Groupings ####

dump            NiPyC2_relax_sc211_meta_functionalized_P-2CH3_xyzmov all xyz 20000 NiPyC2_relax_sc211_meta_functionalized_P-2CH3_mov.xyz
dump_modify     NiPyC2_relax_sc211_meta_functionalized_P-2CH3_xyzmov element Ni O N C H P C
min_style       cg
print           "MinStep,CellMinStep,AtomMinStep,FinalStep,Energy,EDiff" file NiPyC2_relax_sc211_meta_functionalized_P-2CH3.min.csv screen no
variable        min_eval   equal 1.00e-06
variable        prev_E     equal 50000.00
variable        iter       loop 100000
label           loop_min
min_style       cg
fix             1 all box/relax aniso 0.0 vmax 0.01
minimize        1.0e-15 1.0e-15 10000 100000
  update every 1 steps, delay 0 steps, check yes
Step Temp E_pair E_mol TotEng Press Volume
0            0 1.0136794e+09    2303.1183 1.0136817e+09 1.7278927e+11    1609.0819
Loop time of 0.225172 on 1 procs for 565 steps with 172 atoms

Minimization stats:
  Stopping criterion = linesearch alpha is zero
  Energy initial, next-to-last, final =
  Force two-norm initial, final = 2.50236e+10 115.026
  Force max component initial, final = 1.49235e+10 101.097
  Final line search alpha, max atom move = 4.72687e-13 4.77872e-11
  Iterations, force evaluations = 565 948

unfix           1
min_style       fire
variable        tempstp    equal $(step)
variable        tempstp    equal 565
variable        CellMinStep equal 565
minimize        1.0e-15 1.0e-15 10000 100000
  Parameters for fire:
    dmax delaystep dtgrow dtshrink alpha0 alphashrink tmax tmin    integrator halfstepback
     0.1        20    1.1      0.5   0.25        0.99   10 0.02 eulerimplicit          yes
Step Temp E_pair E_mol TotEng Press
565            0     115.2089    1743.5402    1858.7491   -1820.3233
Loop time of 2.00711 on 1 procs for 10000 steps with 172 atoms

Minimization stats:
  Stopping criterion = max iterations
  Energy initial, next-to-last, final =
  Force two-norm initial, final = 45.9022 0.000249406
  Force max component initial, final = 7.10359 6.31447e-05
  Final line search alpha, max atom move = 0 0
  Iterations, force evaluations = 10000 10000

variable        AtomMinStep equal 565
variable        temppe     equal $(pe)
variable        temppe     equal 1791.0876833050856476
variable        min_E      equal abs(50000-1791.08768330509)
variable        prev_E     equal 1791.08768330509
next            iter
jump            SELF loop_min
min_style       cg
fix             1 all box/relax aniso 0.0 vmax 0.01
minimize        1.0e-15 1.0e-15 10000 100000
Step Temp E_pair E_mol TotEng Press Volume
10565 2.018977e-10    94.744386    1696.3433    1791.0877    1948.0411    1703.4503
Loop time of 0.0147304 on 1 procs for 3 steps with 172 atoms

Minimization stats:
  Stopping criterion = linesearch alpha is zero
  Energy initial, next-to-last, final =
  Force two-norm initial, final = 283.829 27.8142
  Force max component initial, final = 267.825 14.9401
  Final line search alpha, max atom move = 8.9761e-12 1.34104e-10
  Iterations, force evaluations = 3 59

unfix           1
min_style       fire
variable        tempstp    equal $(step)
variable        tempstp    equal 10568
variable        CellMinStep equal 10568
minimize        1.0e-15 1.0e-15 10000 100000
  Parameters for fire:
    dmax delaystep dtgrow dtshrink alpha0 alphashrink tmax tmin    integrator halfstepback
     0.1        20    1.1      0.5   0.25        0.99   10 0.02 eulerimplicit          yes
Step Temp E_pair E_mol TotEng Press
10568            0    94.155345    1696.4429    1790.5982    296.33806
Loop time of 1.27763 on 1 procs for 6427 steps with 172 atoms

Minimization stats:
  Stopping criterion = energy tolerance
  Energy initial, next-to-last, final =
  Force two-norm initial, final = 22.8861 3.77317e-05
  Force max component initial, final = 4.45665 1.28969e-05
  Final line search alpha, max atom move = 0 0
  Iterations, force evaluations = 6427 6427

variable        AtomMinStep equal 10568
variable        temppe     equal $(pe)
variable        temppe     equal 1790.4192194759032191
variable        min_E      equal abs(1791.08768330509-1790.4192194759)
variable        prev_E     equal 1790.4192194759
next            iter
jump            SELF loop_min
min_style       cg
fix             1 all box/relax aniso 0.0 vmax 0.01
minimize        1.0e-15 1.0e-15 10000 100000
Step Temp E_pair E_mol TotEng Press Volume
16995 1.2234242e-10    94.584469    1695.8348    1790.4192    1992.2418    1704.4751
Loop time of 0.0181753 on 1 procs for 8 steps with 172 atoms

Minimization stats:
  Stopping criterion = linesearch alpha is zero
  Energy initial, next-to-last, final =
  Force two-norm initial, final = 256.732 37.2123
  Force max component initial, final = 246.117 27.6495
  Final line search alpha, max atom move = 6.27066e-12 1.73381e-10
  Iterations, force evaluations = 8 67

unfix           1
min_style       fire
variable        tempstp    equal $(step)
variable        tempstp    equal 17003
variable        CellMinStep equal 17003
minimize        1.0e-15 1.0e-15 10000 100000
  Parameters for fire:
    dmax delaystep dtgrow dtshrink alpha0 alphashrink tmax tmin    integrator halfstepback
     0.1        20    1.1      0.5   0.25        0.99   10 0.02 eulerimplicit          yes
Step Temp E_pair E_mol TotEng Press
17003            0    92.111973     1697.709     1789.821    146.06952
Loop time of 2.0035 on 1 procs for 10000 steps with 172 atoms

Minimization stats:
  Stopping criterion = max iterations
  Energy initial, next-to-last, final =
  Force two-norm initial, final = 21.5725 2.8473
  Force max component initial, final = 3.66474 0.511656
  Final line search alpha, max atom move = 0 0
  Iterations, force evaluations = 10000 10000

variable        AtomMinStep equal 17003
variable        temppe     equal $(pe)
variable        temppe     equal 1732.1126755974842126
variable        min_E      equal abs(1790.4192194759-1732.11267559748)
variable        prev_E     equal 1732.11267559748
next            iter
jump            SELF loop_min
min_style       cg
fix             1 all box/relax aniso 0.0 vmax 0.01
minimize        1.0e-15 1.0e-15 10000 100000
Step Temp E_pair E_mol TotEng Press Volume
27003    1.0585131    55.110308    1677.0024    1732.6522   -5754.3484    1707.5227
Loop time of 0.0133401 on 1 procs for 2 steps with 172 atoms

Minimization stats:
  Stopping criterion = linesearch alpha is zero
  Energy initial, next-to-last, final =
  Force two-norm initial, final = 352.861 62.442
  Force max component initial, final = 265.809 47.9433
  Final line search alpha, max atom move = 3.02454e-12 1.45006e-10
  Iterations, force evaluations = 2 55

unfix           1
min_style       fire
variable        tempstp    equal $(step)
variable        tempstp    equal 27005
variable        CellMinStep equal 27005
minimize        1.0e-15 1.0e-15 10000 100000
  Parameters for fire:
    dmax delaystep dtgrow dtshrink alpha0 alphashrink tmax tmin    integrator halfstepback
     0.1        20    1.1      0.5   0.25        0.99   10 0.02 eulerimplicit          yes
Step Temp E_pair E_mol TotEng Press
27005            0    61.002889    1670.5254    1731.5283    684.13433
Loop time of 1.27069 on 1 procs for 6259 steps with 172 atoms

Minimization stats:
  Stopping criterion = energy tolerance
  Energy initial, next-to-last, final =
  Force two-norm initial, final = 20.1586 3.68516e-05
  Force max component initial, final = 2.65396 6.91278e-06
  Final line search alpha, max atom move = 0 0
  Iterations, force evaluations = 6259 6259

variable        AtomMinStep equal 27005
variable        temppe     equal $(pe)
variable        temppe     equal 1728.0940497702304128
variable        min_E      equal abs(1732.11267559748-1728.09404977023)
variable        prev_E     equal 1728.09404977023
next            iter
jump            SELF loop_min
min_style       cg
fix             1 all box/relax aniso 0.0 vmax 0.01
minimize        1.0e-15 1.0e-15 10000 100000
Step Temp E_pair E_mol TotEng Press Volume
33264 9.9677037e-11    53.393355    1674.7007     1728.094   -4067.8939    1700.5325
Loop time of 0.0173381 on 1 procs for 8 steps with 172 atoms

Minimization stats:
  Stopping criterion = linesearch alpha is zero
  Energy initial, next-to-last, final =
  Force two-norm initial, final = 244.491 38.9004
  Force max component initial, final = 188.775 35.0678
  Final line search alpha, max atom move = 5.57242e-12 1.95412e-10
  Iterations, force evaluations = 8 67

unfix           1
min_style       fire
variable        tempstp    equal $(step)
variable        tempstp    equal 33272
variable        CellMinStep equal 33272
minimize        1.0e-15 1.0e-15 10000 100000
  Parameters for fire:
    dmax delaystep dtgrow dtshrink alpha0 alphashrink tmax tmin    integrator halfstepback
     0.1        20    1.1      0.5   0.25        0.99   10 0.02 eulerimplicit          yes
Step Temp E_pair E_mol TotEng Press
33272            0    58.961905    1668.6463    1727.6082    368.33631
Loop time of 0.72425 on 1 procs for 3593 steps with 172 atoms

Minimization stats:
  Stopping criterion = energy tolerance
  Energy initial, next-to-last, final =
  Force two-norm initial, final = 13.6452 4.15474e-05
  Force max component initial, final = 2.04208 7.64137e-06
  Final line search alpha, max atom move = 0 0
  Iterations, force evaluations = 3593 3593

variable        AtomMinStep equal 33272
variable        temppe     equal $(pe)
variable        temppe     equal 1727.4287785334124692
variable        min_E      equal abs(1728.09404977023-1727.42877853341)
variable        prev_E     equal 1727.42877853341
next            iter
jump            SELF loop_min
min_style       cg
fix             1 all box/relax aniso 0.0 vmax 0.01
minimize        1.0e-15 1.0e-15 10000 100000
Step Temp E_pair E_mol TotEng Press Volume
36865 1.587832e-10    56.751769     1670.677    1727.4288   -946.63759    1693.9915
Loop time of 0.0121812 on 1 procs for 2 steps with 172 atoms

Minimization stats:
  Stopping criterion = linesearch alpha is zero
  Energy initial, next-to-last, final =
  Force two-norm initial, final = 122.586 11.7911
  Force max component initial, final = 84.9693 6.90105
  Final line search alpha, max atom move = 8.5054e-11 5.86962e-10
  Iterations, force evaluations = 2 51

unfix           1
min_style       fire
variable        tempstp    equal $(step)
variable        tempstp    equal 36867
variable        CellMinStep equal 36867
minimize        1.0e-15 1.0e-15 10000 100000
  Parameters for fire:
    dmax delaystep dtgrow dtshrink alpha0 alphashrink tmax tmin    integrator halfstepback
     0.1        20    1.1      0.5   0.25        0.99   10 0.02 eulerimplicit          yes
Step Temp E_pair E_mol TotEng Press
36867            0    57.810269    1669.5341    1727.3444   -25.095043
Loop time of 0.559055 on 1 procs for 2718 steps with 172 atoms

Minimization stats:
  Stopping criterion = energy tolerance
  Energy initial, next-to-last, final =
  Force two-norm initial, final = 8.62128 3.91057e-05
  Force max component initial, final = 1.18268 7.12779e-06
  Final line search alpha, max atom move = 0 0
  Iterations, force evaluations = 2718 2718

variable        AtomMinStep equal 36867
variable        temppe     equal $(pe)
variable        temppe     equal 1727.2879797351372417
variable        min_E      equal abs(1727.42877853341-1727.28797973514)
variable        prev_E     equal 1727.28797973514
next            iter
jump            SELF loop_min
min_style       cg
fix             1 all box/relax aniso 0.0 vmax 0.01
minimize        1.0e-15 1.0e-15 10000 100000
Step Temp E_pair E_mol TotEng Press Volume
39585 1.1824414e-10    57.438403    1669.8496     1727.288   -265.96407    1692.8046
Loop time of 0.0120633 on 1 procs for 2 steps with 172 atoms

Minimization stats:
  Stopping criterion = linesearch alpha is zero
  Energy initial, next-to-last, final =
  Force two-norm initial, final = 98.8549 11.9759
  Force max component initial, final = 72.667 8.04848
  Final line search alpha, max atom move = 7.01775e-11 5.64822e-10
  Iterations, force evaluations = 2 51

unfix           1
min_style       fire
variable        tempstp    equal $(step)
variable        tempstp    equal 39587
variable        CellMinStep equal 39587
minimize        1.0e-15 1.0e-15 10000 100000
  Parameters for fire:
    dmax delaystep dtgrow dtshrink alpha0 alphashrink tmax tmin    integrator halfstepback
     0.1        20    1.1      0.5   0.25        0.99   10 0.02 eulerimplicit          yes
Step Temp E_pair E_mol TotEng Press
39587            0    57.802257     1669.463    1727.2653   -184.90536
Loop time of 0.759395 on 1 procs for 3703 steps with 172 atoms

Minimization stats:
  Stopping criterion = energy tolerance
  Energy initial, next-to-last, final =
  Force two-norm initial, final = 7.54516 3.90835e-05
  Force max component initial, final = 1.24735 7.25908e-06
  Final line search alpha, max atom move = 0 0
  Iterations, force evaluations = 3703 3703

variable        AtomMinStep equal 39587
variable        temppe     equal $(pe)
variable        temppe     equal 1727.1084841738645537
variable        min_E      equal abs(1727.28797973514-1727.10848417386)
variable        prev_E     equal 1727.10848417386
next            iter
jump            SELF loop_min
min_style       cg
fix             1 all box/relax aniso 0.0 vmax 0.01
minimize        1.0e-15 1.0e-15 10000 100000
Step Temp E_pair E_mol TotEng Press Volume
43290 1.4628245e-10    57.620042    1669.4884    1727.1085    34.790846    1692.4752
Loop time of 0.0126933 on 1 procs for 3 steps with 172 atoms

Minimization stats:
  Stopping criterion = linesearch alpha is zero
  Energy initial, next-to-last, final =
  Force two-norm initial, final = 85.5104 14.9402
  Force max component initial, final = 70.136 8.39126
  Final line search alpha, max atom move = 2.20617e-10 1.85125e-09
  Iterations, force evaluations = 3 51

unfix           1
min_style       fire
variable        tempstp    equal $(step)
variable        tempstp    equal 43293
variable        CellMinStep equal 43293
minimize        1.0e-15 1.0e-15 10000 100000
  Parameters for fire:
    dmax delaystep dtgrow dtshrink alpha0 alphashrink tmax tmin    integrator halfstepback
     0.1        20    1.1      0.5   0.25        0.99   10 0.02 eulerimplicit          yes
Step Temp E_pair E_mol TotEng Press
43293            0    58.101612    1668.9629    1727.0645    314.83027
Loop time of 0.442726 on 1 procs for 2205 steps with 172 atoms

Minimization stats:
  Stopping criterion = energy tolerance
  Energy initial, next-to-last, final =
  Force two-norm initial, final = 6.42754 4.68179e-05
  Force max component initial, final = 0.996394 8.74421e-06
  Final line search alpha, max atom move = 0 0
  Iterations, force evaluations = 2205 2205

variable        AtomMinStep equal 43293
variable        temppe     equal $(pe)
variable        temppe     equal 1727.0510322314769383
variable        min_E      equal abs(1727.10848417386-1727.05103223148)
variable        prev_E     equal 1727.05103223148
next            iter
jump            SELF loop_min
min_style       cg
fix             1 all box/relax aniso 0.0 vmax 0.01
minimize        1.0e-15 1.0e-15 10000 100000
Step Temp E_pair E_mol TotEng Press Volume
45498 2.1995561e-10    57.976917    1669.0741     1727.051    396.26404    1691.9622
Loop time of 0.0122377 on 1 procs for 2 steps with 172 atoms

Minimization stats:
  Stopping criterion = linesearch alpha is zero
  Energy initial, next-to-last, final =
  Force two-norm initial, final = 75.7333 13.0699
  Force max component initial, final = 69.7387 8.65112
  Final line search alpha, max atom move = 6.52168e-11 5.64199e-10
  Iterations, force evaluations = 2 51

unfix           1
min_style       fire
variable        tempstp    equal $(step)
variable        tempstp    equal 45500
variable        CellMinStep equal 45500
minimize        1.0e-15 1.0e-15 10000 100000
  Parameters for fire:
    dmax delaystep dtgrow dtshrink alpha0 alphashrink tmax tmin    integrator halfstepback
     0.1        20    1.1      0.5   0.25        0.99   10 0.02 eulerimplicit          yes
Step Temp E_pair E_mol TotEng Press
45500            0    57.638953    1669.3856    1727.0246    -262.7699
Loop time of 0.470156 on 1 procs for 2358 steps with 172 atoms

Minimization stats:
  Stopping criterion = energy tolerance
  Energy initial, next-to-last, final =
  Force two-norm initial, final = 5.97355 3.25702e-05
  Force max component initial, final = 1.13089 6.14372e-06
  Final line search alpha, max atom move = 0 0
  Iterations, force evaluations = 2358 2358

variable        AtomMinStep equal 45500
variable        temppe     equal $(pe)
variable        temppe     equal 1727.0097756525001387
variable        min_E      equal abs(1727.05103223148-1727.0097756525)
variable        prev_E     equal 1727.0097756525
next            iter
jump            SELF loop_min
min_style       cg
fix             1 all box/relax aniso 0.0 vmax 0.01
minimize        1.0e-15 1.0e-15 10000 100000
Step Temp E_pair E_mol TotEng Press Volume
47858 9.1443167e-11    57.865663    1669.1441    1727.0098    345.93604    1692.4155
Loop time of 0.0120367 on 1 procs for 2 steps with 172 atoms

Minimization stats:
  Stopping criterion = linesearch alpha is zero
  Energy initial, next-to-last, final =
  Force two-norm initial, final = 68.4053 12.0576
  Force max component initial, final = 62.9116 8.26453
  Final line search alpha, max atom move = 6.78155e-11 5.60463e-10
  Iterations, force evaluations = 2 51

unfix           1
min_style       fire
variable        tempstp    equal $(step)
variable        tempstp    equal 47860
variable        CellMinStep equal 47860
minimize        1.0e-15 1.0e-15 10000 100000
  Parameters for fire:
    dmax delaystep dtgrow dtshrink alpha0 alphashrink tmax tmin    integrator halfstepback
     0.1        20    1.1      0.5   0.25        0.99   10 0.02 eulerimplicit          yes
Step Temp E_pair E_mol TotEng Press
47860            0    57.557037    1669.4162    1726.9732   -242.39252
Loop time of 0.332387 on 1 procs for 1664 steps with 172 atoms

Minimization stats:
  Stopping criterion = energy tolerance
  Energy initial, next-to-last, final =
  Force two-norm initial, final = 5.4154 3.44533e-05
  Force max component initial, final = 1.02169 6.56928e-06
  Final line search alpha, max atom move = 0 0
  Iterations, force evaluations = 1664 1664

variable        AtomMinStep equal 47860
variable        temppe     equal $(pe)
variable        temppe     equal 1726.9621186811125426
variable        min_E      equal abs(1727.0097756525-1726.96211868111)
variable        prev_E     equal 1726.96211868111
next            iter
jump            SELF loop_min
min_style       cg
fix             1 all box/relax aniso 0.0 vmax 0.01
minimize        1.0e-15 1.0e-15 10000 100000
Step Temp E_pair E_mol TotEng Press Volume
49524 1.0479554e-10    57.761456    1669.2007    1726.9621    304.86355    1692.8128
Loop time of 0.0128634 on 1 procs for 1 steps with 172 atoms

Minimization stats:
  Stopping criterion = linesearch alpha is zero
  Energy initial, next-to-last, final =
  Force two-norm initial, final = 61.7867 61.7867
  Force max component initial, final = 56.7718 56.7718
  Final line search alpha, max atom move = 2.62475e-12 1.49012e-10
  Iterations, force evaluations = 1 53

unfix           1
min_style       fire
variable        tempstp    equal $(step)
variable        tempstp    equal 49525
variable        CellMinStep equal 49525
minimize        1.0e-15 1.0e-15 10000 100000
  Parameters for fire:
    dmax delaystep dtgrow dtshrink alpha0 alphashrink tmax tmin    integrator halfstepback
     0.1        20    1.1      0.5   0.25        0.99   10 0.02 eulerimplicit          yes
Step Temp E_pair E_mol TotEng Press
49525            0    57.761456    1669.2007    1726.9621    304.86355
Loop time of 0.0051126 on 1 procs for 24 steps with 172 atoms

Minimization stats:
  Stopping criterion = energy tolerance
  Energy initial, next-to-last, final =
  Force two-norm initial, final = 3.44533e-05 8.8767e-05
  Force max component initial, final = 6.56928e-06 2.73969e-05
  Final line search alpha, max atom move = 0 0
  Iterations, force evaluations = 24 24

variable        AtomMinStep equal 49525
variable        temppe     equal $(pe)
variable        temppe     equal 1726.962118681054335
variable        min_E      equal abs(1726.96211868111-1726.96211868105)
jump SELF break_min
undump          NiPyC2_relax_sc211_meta_functionalized_P-2CH3_xyzmov

# Dump last snapshot for restart
variable curr_lx equal lx
variable curr_ly equal ly
variable curr_lz equal lz
change_box all x final 0 15.3485022503856 y final 0 10.3265361780973 z final 0 10.6804185708221
  triclinic box = (0 1.09843 -0.20307) to (15.3485 11.425 10.4773) with tilt (0 -0.236591 0)
  triclinic box = (0 0 -0.20307) to (15.3485 10.3265 10.4773) with tilt (0 -0.236591 0)
  triclinic box = (0 0 0) to (15.3485 10.3265 10.6804) with tilt (0 -0.236591 0)

reset_timestep 0
dump            NiPyC2_relax_sc211_meta_functionalized_P-2CH3_restart all atom 1 NiPyC2_relax_sc211_meta_functionalized_P-2CH3_restart.lammpstrj
dump_modify     NiPyC2_relax_sc211_meta_functionalized_P-2CH3_restart scale no sort id
run 0
Step Temp E_pair E_mol TotEng Press
0 1.3848525e-10    57.761456    1669.2007    1726.9621    304.86379
Loop time of 7.75995e-07 on 1 procs for 0 steps with 172 atoms

undump          NiPyC2_relax_sc211_meta_functionalized_P-2CH3_restart
