
data_
_chemical_name_mineral ?hkl_Phase?
_cell_length_a 11.9038(9)
_cell_length_b 7.0704(7)
_cell_length_c 10.6383(10)
_cell_angle_alpha 90
_cell_angle_beta 90
_cell_angle_gamma 90
_cell_volume 895.36(14)
_symmetry_space_group_name_H-M Pnn2
loop_
	_symmetry_equiv_pos_as_xyz
	 'x, y, z '
	 '-x+1/2, y+1/2, z+1/2 '
	 '-x, -y, z '
	 'x+1/2, -y+1/2, z+1/2 '
loop_
_atom_site_label
_atom_site_type_symbol
_atom_site_symmetry_multiplicity
_atom_site_fract_x
_atom_site_fract_y
_atom_site_fract_z
_atom_site_occupancy
_atom_site_B_iso_or_equiv
Ni1 Ni   2 0 0.5 0.4850(6) 1 1.70(13)
O012 O   4 -0.3878(10) -0.783(2) 0.0295(8) 1 1.73(17)
O022 O   4 -0.3841(10) -1.0366(19) 0.1460(10) 1 1.73(17)
C032 C   4 -0.2291(8) -0.5919(15) 0.1922(6) 1 1.73(17)
C042 C   4 -0.2037(8) -0.8887(14) 0.3000(6) 1 1.73(17)
C052 C   4 -0.1167(8) -0.8003(16) 0.3704(6) 1 1.73(17)
H062 H   4 -0.0678(9) -0.8823(18) 0.4375(7) 1 1.73(17)
H072 H   4 -0.1955(12) -1.1284(16) 0.4068(10) 1 1.73(17)
N082 N   4 -0.0938(8) -0.6166(16) 0.3602(7) 1 1.73(17)
N092 N   4 -0.2316(10) -1.0662(15) 0.3287(9) 1 1.73(17)
C102 C   4 -0.2590(8) -0.7817(15) 0.2044(6) 1 1.73(17)
H112 H   4 -0.2982(11) -1.1237(15) 0.2799(10) 1 1.73(17)
C122 C   4 -0.3458(9) -0.8685(18) 0.1258(8) 1 1.73(17)
C132 C   4 -0.1481(9) -0.5122(14) 0.2717(7) 1 1.73(17)
H142 H   4 -0.1262(11) -0.3632(15) 0.2674(10) 1 1.73(17)
H152 H   4 -0.2712(9) -0.5001(16) 0.1252(7) 1 1.73(17)
