
data_
_chemical_name_mineral ?hkl_Phase?
_cell_length_a 11.8955(8)
_cell_length_b 7.1056(6)
_cell_length_c 10.6269(9)
_cell_angle_alpha 90
_cell_angle_beta 90
_cell_angle_gamma 90
_cell_volume 898.24(13)
_symmetry_space_group_name_H-M Pnn2
loop_
	_symmetry_equiv_pos_as_xyz
	 'x, y, z '
	 '-x+1/2, y+1/2, z+1/2 '
	 '-x, -y, z '
	 'x+1/2, -y+1/2, z+1/2 '
loop_
_atom_site_label
_atom_site_type_symbol
_atom_site_symmetry_multiplicity
_atom_site_fract_x
_atom_site_fract_y
_atom_site_fract_z
_atom_site_occupancy
_atom_site_B_iso_or_equiv
Ni1 Ni   2 0 0.5 0.5301(6) 1 1.98(11)
O012 O   4 -0.3871(7) -0.7908(17) 0.0742(6) 1 1.18(14)
O022 O   4 -0.3830(8) -1.0418(15) 0.1917(8) 1 1.18(14)
C032 C   4 -0.2292(6) -0.5978(12) 0.2370(5) 1 1.18(14)
C042 C   4 -0.2033(6) -0.8921(12) 0.3460(5) 1 1.18(14)
C052 C   4 -0.1167(6) -0.8030(13) 0.4164(5) 1 1.18(14)
H062 H   4 -0.0677(7) -0.8836(15) 0.4841(6) 1 1.18(14)
H072 H   4 -0.1948(9) -1.1297(13) 0.4537(8) 1 1.18(14)
N082 N   4 -0.0942(6) -0.6200(13) 0.4057(5) 1 1.18(14)
N092 N   4 -0.2308(8) -1.0686(12) 0.3752(7) 1 1.18(14)
C102 C   4 -0.2587(6) -0.7868(12) 0.2497(5) 1 1.18(14)
H112 H   4 -0.2972(9) -1.1268(13) 0.3264(8) 1 1.18(14)
C122 C   4 -0.3451(7) -0.8744(14) 0.1710(6) 1 1.18(14)
C132 C   4 -0.1486(7) -0.5173(12) 0.3166(6) 1 1.18(14)
H142 H   4 -0.1271(9) -0.3689(12) 0.3118(7) 1 1.18(14)
H152 H   4 -0.2714(7) -0.5073(13) 0.1694(6) 1 1.18(14)
