units           real
atom_style      full
boundary        p p p

pair_style      lj/cut 14.000
bond_style      harmonic
angle_style     cosine/periodic
dihedral_style  harmonic
improper_style  fourier

special_bonds   lj/coul 0.0 0.0 1.0
pair_modify     tail yes mix arithmetic
dielectric      1.0
box tilt        large
read_data       data.NiPyC2_experiment_with_Xe
  triclinic box = (0 0 0) to (31.264 37.5702 30.8228) with tilt (0 -0.682783 0)
  reading atoms ...
  2431 atoms
  scanning bonds ...
  scanning angles ...
  scanning dihedrals ...
  scanning impropers ...
  reading bonds ...
  2880 bonds
  reading angles ...
  5490 angles
  reading dihedrals ...
  5760 dihedrals
  reading impropers ...
  3780 impropers

#### Atom Groupings ####
group           1        id   55
1 atoms in group 1
group           fram     id   1:54 56:2431
2430 atoms in group fram
#### END Atom Groupings ####

dump            NiPyC2_experiment_with_Xe_xyzmov all xyz 1000 NiPyC2_experiment_with_Xe_mov.xyz
dump_modify     NiPyC2_experiment_with_Xe_xyzmov element Ni O N C H Xe
variable        dt         equal 1.00
variable        tdamp      equal 100*1
fix             1 1 langevin 298.00 298.00 100 8646
fix             2 1 nve
fix             3 fram langevin 298.00 298.00 100 965287
fix             4 fram nve
thermo          0
run             5000
  update every 1 steps, delay 10 steps, check yes
Step Temp E_pair E_mol TotEng Press
0            0    1347.2182    41619.617    42966.836    -49580.39
Loop time of 79.2946 on 1 procs for 5000 steps with 2431 atoms

unfix           1
unfix           2
unfix           3
unfix           4
fix             5 1 nvt temp 298.00 298.00 100
fix             6 fram nvt temp 298.00 298.00 100
thermo          1
run             5000
Step Temp E_pair E_mol TotEng Press
5000    292.52395    685.04187    22467.261    25271.162   -67599.864
Averages over the last 2501 of 5001 rows, steps 7500 to 10000:
Temp E_pair E_mol TotEng Press
299.187 668.882 22507.2 25343.2 -67089.7
Loop time of 117.885 on 1 procs for 5000 steps with 2431 atoms

unfix           5
unfix           6
undump          NiPyC2_experiment_with_Xe_xyzmov
