units           real
atom_style      full
boundary        p p p

pair_style      lj/cut 5.000
bond_style      harmonic
angle_style     hybrid fourier cosine/periodic
dihedral_style  harmonic
improper_style  fourier

pair_modify     tail yes mix arithmetic
special_bonds   lj/coul 0.0 0.0 1.0
dielectric      1.0
box tilt        large
read_data       data.NiPyC2_relax_sc211_ortho_functionalized_S-CH3
  triclinic box = (0 0 0) to (12.5056 12.5234 10.2743) with tilt (0 -0.227594 0)
  reading atoms ...
  140 atoms
  scanning bonds ...
  scanning angles ...
  scanning dihedrals ...
  scanning impropers ...
  reading bonds ...
  160 bonds
  reading angles ...
  300 angles
  reading dihedrals ...
  296 dihedrals
  reading impropers ...
  168 impropers

#### Atom Groupings ####
group           fram     id   1:140
140 atoms in group fram
#### END Atom Groupings ####

dump            NiPyC2_relax_sc211_ortho_functionalized_S-CH3_xyzmov all xyz 20000 NiPyC2_relax_sc211_ortho_functionalized_S-CH3_mov.xyz
dump_modify     NiPyC2_relax_sc211_ortho_functionalized_S-CH3_xyzmov element Ni O N C H S C
min_style       cg
print           "MinStep,CellMinStep,AtomMinStep,FinalStep,Energy,EDiff" file NiPyC2_relax_sc211_ortho_functionalized_S-CH3.min.csv screen no
variable        min_eval   equal 1.00e-06
variable        prev_E     equal 50000.00
variable        iter       loop 100000
label           loop_min
min_style       cg
fix             1 all box/relax aniso 0.0 vmax 0.01
minimize        1.0e-15 1.0e-15 10000 100000
  update every 1 steps, delay 0 steps, check yes
Step Temp E_pair E_mol TotEng Press Volume
0            0 1.2283451e+10    2559.2846 1.2283454e+10 2.0937638e+12    1609.0819
Loop time of 0.12512 on 1 procs for 400 steps with 140 atoms

Minimization stats:
  Stopping criterion = linesearch alpha is zero
  Energy initial, next-to-last, final =
  Force two-norm initial, final = 4.73307e+11 78.3491
  Force max component initial, final = 3.10907e+11 36.7095
  Final line search alpha, max atom move = 1.33568e-12 4.90321e-11
  Iterations, force evaluations = 400 662

unfix           1
min_style       fire
variable        tempstp    equal $(step)
variable        tempstp    equal 400
variable        CellMinStep equal 400
minimize        1.0e-15 1.0e-15 10000 100000
  Parameters for fire:
    dmax delaystep dtgrow dtshrink alpha0 alphashrink tmax tmin    integrator halfstepback
     0.1        20    1.1      0.5   0.25        0.99   10 0.02 eulerimplicit          yes
Step Temp E_pair E_mol TotEng Press
400            0    106.80413    1663.0178    1769.8219     1176.194
Loop time of 0.959765 on 1 procs for 6397 steps with 140 atoms

Minimization stats:
  Stopping criterion = energy tolerance
  Energy initial, next-to-last, final =
  Force two-norm initial, final = 60.8735 4.05921e-05
  Force max component initial, final = 8.60122 8.54313e-06
  Final line search alpha, max atom move = 0 0
  Iterations, force evaluations = 6397 6397

variable        AtomMinStep equal 400
variable        temppe     equal $(pe)
variable        temppe     equal 1746.0158217770069768
variable        min_E      equal abs(50000-1746.01582177701)
variable        prev_E     equal 1746.01582177701
next            iter
jump            SELF loop_min
min_style       cg
fix             1 all box/relax aniso 0.0 vmax 0.01
minimize        1.0e-15 1.0e-15 10000 100000
Step Temp E_pair E_mol TotEng Press Volume
6797 1.4763417e-10    99.446399    1646.5694    1746.0158    62.577286    1590.6207
Loop time of 0.0106141 on 1 procs for 3 steps with 140 atoms

Minimization stats:
  Stopping criterion = linesearch alpha is zero
  Energy initial, next-to-last, final =
  Force two-norm initial, final = 72.4811 9.87036
  Force max component initial, final = 57.6449 5.31471
  Final line search alpha, max atom move = 1.46825e-10 7.80332e-10
  Iterations, force evaluations = 3 59

unfix           1
min_style       fire
variable        tempstp    equal $(step)
variable        tempstp    equal 6800
variable        CellMinStep equal 6800
minimize        1.0e-15 1.0e-15 10000 100000
  Parameters for fire:
    dmax delaystep dtgrow dtshrink alpha0 alphashrink tmax tmin    integrator halfstepback
     0.1        20    1.1      0.5   0.25        0.99   10 0.02 eulerimplicit          yes
Step Temp E_pair E_mol TotEng Press
6800            0    99.971318    1646.0169    1745.9882    163.12068
Loop time of 1.01739 on 1 procs for 6811 steps with 140 atoms

Minimization stats:
  Stopping criterion = energy tolerance
  Energy initial, next-to-last, final =
  Force two-norm initial, final = 6.98698 4.57092e-05
  Force max component initial, final = 0.962799 8.84507e-06
  Final line search alpha, max atom move = 0 0
  Iterations, force evaluations = 6811 6811

variable        AtomMinStep equal 6800
variable        temppe     equal $(pe)
variable        temppe     equal 1745.837129085298784
variable        min_E      equal abs(1746.01582177701-1745.8371290853)
variable        prev_E     equal 1745.8371290853
next            iter
jump            SELF loop_min
min_style       cg
fix             1 all box/relax aniso 0.0 vmax 0.01
minimize        1.0e-15 1.0e-15 10000 100000
Step Temp E_pair E_mol TotEng Press Volume
13611 1.8073765e-10    99.734369    1646.1028    1745.8371    448.13716    1590.2582
Loop time of 0.0102602 on 1 procs for 1 steps with 140 atoms

Minimization stats:
  Stopping criterion = linesearch alpha is zero
  Energy initial, next-to-last, final =
  Force two-norm initial, final = 64.4568 64.4568
  Force max component initial, final = 40.0731 40.0731
  Final line search alpha, max atom move = 1.85925e-12 7.45058e-11
  Iterations, force evaluations = 1 55

unfix           1
min_style       fire
variable        tempstp    equal $(step)
variable        tempstp    equal 13612
variable        CellMinStep equal 13612
minimize        1.0e-15 1.0e-15 10000 100000
  Parameters for fire:
    dmax delaystep dtgrow dtshrink alpha0 alphashrink tmax tmin    integrator halfstepback
     0.1        20    1.1      0.5   0.25        0.99   10 0.02 eulerimplicit          yes
Step Temp E_pair E_mol TotEng Press
13612            0    99.734369    1646.1028    1745.8371    448.13716
Loop time of 0.020046 on 1 procs for 129 steps with 140 atoms

Minimization stats:
  Stopping criterion = energy tolerance
  Energy initial, next-to-last, final =
  Force two-norm initial, final = 4.57092e-05 3.88403e-05
  Force max component initial, final = 8.84507e-06 7.46537e-06
  Final line search alpha, max atom move = 0 0
  Iterations, force evaluations = 129 129

variable        AtomMinStep equal 13612
variable        temppe     equal $(pe)
variable        temppe     equal 1745.8371290848360786
variable        min_E      equal abs(1745.8371290853-1745.83712908484)
jump SELF break_min
undump          NiPyC2_relax_sc211_ortho_functionalized_S-CH3_xyzmov

# Dump last snapshot for restart
variable curr_lx equal lx
variable curr_ly equal ly
variable curr_lz equal lz
change_box all x final 0 14.4887789828502 y final 0 11.6179313050951 z final 0 9.44728576654511
  triclinic box = (0 0.452734 0.413497) to (14.4888 12.0707 9.86078) with tilt (0 -0.209275 0)
  triclinic box = (0 0 0.413497) to (14.4888 11.6179 9.86078) with tilt (0 -0.209275 0)
  triclinic box = (0 0 0) to (14.4888 11.6179 9.44729) with tilt (0 -0.209275 0)

reset_timestep 0
dump            NiPyC2_relax_sc211_ortho_functionalized_S-CH3_restart all atom 1 NiPyC2_relax_sc211_ortho_functionalized_S-CH3_restart.lammpstrj
dump_modify     NiPyC2_relax_sc211_ortho_functionalized_S-CH3_restart scale no sort id
run 0
Step Temp E_pair E_mol TotEng Press
0 1.4543199e-10    99.734409    1646.1027    1745.8371    448.14581
Loop time of 7.59988e-07 on 1 procs for 0 steps with 140 atoms

undump          NiPyC2_relax_sc211_ortho_functionalized_S-CH3_restart
