data_NiPyC2_pbesol-angle-vc-relax_in_PM
_symmetry_space_group_name_H-M	'P1'
_cell_length_a	6.784741
_cell_length_b	10.808086
_cell_length_c	11.181192
_cell_angle_alpha	90.000000
_cell_angle_beta	90.935238
_cell_angle_gamma	90.000000
_symmetry_Int_Tables_number 1

loop_
_symmetry_equiv_pos_as_xyz
'x,y,z'

loop_
_atom_site_label
_atom_site_type_symbol
_atom_site_fract_x
_atom_site_fract_y
_atom_site_fract_z
C1	C	0.580387	0.976609	0.534389
C2	C	0.782423	1.002747	0.541363
C3	C	0.897800	0.956082	0.635745
C4	C	0.414828	0.516944	0.542494
C5	C	0.497286	0.594898	0.629205
C6	C	0.498356	0.903607	0.623633
C7	C	0.806107	0.883289	0.721617
C8	C	0.190651	0.617861	0.722290
C9	C	0.098464	0.540518	0.638477
C10	C	0.213242	0.490014	0.547946
C11	C	0.870354	0.085437	0.453967
C12	C	0.125942	0.404739	0.460937
C13	C	0.080387	0.023391	0.034389
C14	C	0.282423	-0.002747	0.041363
C15	C	0.397800	0.043918	0.135745
C16	C	0.914828	0.483056	0.042494
C17	C	0.997286	0.405102	0.129205
C18	C	-0.001644	0.096393	0.123633
C19	C	0.306107	0.116711	0.221617
C20	C	0.690651	0.382139	0.222290
C21	C	0.598464	0.459482	0.138477
C22	C	0.713242	0.509986	0.047946
C23	C	0.370354	0.914563	0.953967
C24	C	0.625942	0.595261	0.960937
H1	H	0.487213	1.012555	0.462587
H2	H	0.054552	0.975754	0.644288
H3	H	0.507074	0.477701	0.473673
H4	H	0.652922	0.620136	0.630432
H5	H	0.342291	0.879927	0.624570
H6	H	0.886426	0.843370	0.797253
H7	H	0.110381	0.661253	0.794628
H8	H	0.941892	0.520662	0.645533
H9	H	-0.012787	-0.012555	0.962587
H10	H	0.554552	0.024246	0.144288
H11	H	1.007074	0.522299	0.973673
H12	H	0.152922	0.379864	0.130432
H13	H	0.842291	0.120073	0.124570
H14	H	0.386426	0.156630	0.297253
H15	H	0.610381	0.338747	0.294628
H16	H	0.441892	0.479338	0.145533
N1	N	0.611121	0.859314	0.714287
N2	N	0.385391	0.642502	0.716530
N3	N	0.111121	0.140686	0.214287
N4	N	0.885391	0.357498	0.216530
Ni1	Ni	0.499193	0.753312	0.836043
Ni2	Ni	0.999193	0.246688	0.336043
O1	O	0.227133	0.355067	0.376705
O2	O	0.769505	0.136305	0.368445
O3	O	0.945099	0.370068	0.464751
O4	O	0.052368	0.118238	0.460641
O5	O	0.727133	0.644933	0.876705
O6	O	0.269505	0.863695	0.868445
O7	O	0.445099	0.629932	0.964751
O8	O	0.552368	0.881762	0.960641
