units           real
atom_style      full
boundary        p p p

pair_style      lj/cut 5.000
bond_style      harmonic
angle_style     hybrid fourier cosine/periodic
dihedral_style  harmonic
improper_style  fourier

special_bonds   lj/coul 0.0 0.0 1.0
dielectric      1.0
pair_modify     tail yes mix arithmetic
box tilt        large
read_data       data.NiPyC2_relax_sc211_meta_functionalized_O-CH3
  triclinic box = (0 0 0) to (12.5056 12.5234 10.2743) with tilt (0 -0.227594 0)
  reading atoms ...
  140 atoms
  scanning bonds ...
  scanning angles ...
  scanning dihedrals ...
  scanning impropers ...
  reading bonds ...
  160 bonds
  reading angles ...
  300 angles
  reading dihedrals ...
  296 dihedrals
  reading impropers ...
  168 impropers

#### Atom Groupings ####
group           fram     id   1:140
140 atoms in group fram
#### END Atom Groupings ####

dump            NiPyC2_relax_sc211_meta_functionalized_O-CH3_xyzmov all xyz 20000 NiPyC2_relax_sc211_meta_functionalized_O-CH3_mov.xyz
dump_modify     NiPyC2_relax_sc211_meta_functionalized_O-CH3_xyzmov element Ni O N C H O C
min_style       cg
print           "MinStep,CellMinStep,AtomMinStep,FinalStep,Energy,EDiff" file NiPyC2_relax_sc211_meta_functionalized_O-CH3.min.csv screen no
variable        min_eval   equal 1.00e-06
variable        prev_E     equal 50000.00
variable        iter       loop 100000
label           loop_min
min_style       cg
fix             1 all box/relax aniso 0.0 vmax 0.01
minimize        1.0e-15 1.0e-15 10000 100000
  update every 1 steps, delay 0 steps, check yes
Step Temp E_pair E_mol TotEng Press Volume
0            0    17416.407    2378.5835    19794.991    2932139.9    1609.0819
Loop time of 0.095165 on 1 procs for 253 steps with 140 atoms

Minimization stats:
  Stopping criterion = linesearch alpha is zero
  Energy initial, next-to-last, final =
  Force two-norm initial, final = 156448 42.1014
  Force max component initial, final = 125270 23.2241
  Final line search alpha, max atom move = 4.58521e-12 1.06487e-10
  Iterations, force evaluations = 253 489

unfix           1
min_style       fire
variable        tempstp    equal $(step)
variable        tempstp    equal 253
variable        CellMinStep equal 253
minimize        1.0e-15 1.0e-15 10000 100000
  Parameters for fire:
    dmax delaystep dtgrow dtshrink alpha0 alphashrink tmax tmin    integrator halfstepback
     0.1        20    1.1      0.5   0.25        0.99   10 0.02 eulerimplicit          yes
Step Temp E_pair E_mol TotEng Press
253            0    95.749305    1522.3623    1618.1116    245.53674
Loop time of 1.38499 on 1 procs for 8749 steps with 140 atoms

Minimization stats:
  Stopping criterion = energy tolerance
  Energy initial, next-to-last, final =
  Force two-norm initial, final = 34.8478 3.2361e-05
  Force max component initial, final = 6.25837 1.54036e-05
  Final line search alpha, max atom move = 0 0
  Iterations, force evaluations = 8749 8749

variable        AtomMinStep equal 253
variable        temppe     equal $(pe)
variable        temppe     equal 1602.4348060074098612
variable        min_E      equal abs(50000-1602.43480600741)
variable        prev_E     equal 1602.43480600741
next            iter
jump            SELF loop_min
min_style       cg
fix             1 all box/relax aniso 0.0 vmax 0.01
minimize        1.0e-15 1.0e-15 10000 100000
Step Temp E_pair E_mol TotEng Press Volume
9002 1.2172412e-10    85.465648    1516.9692    1602.4348   -2401.8494    1485.8153
Loop time of 0.0102521 on 1 procs for 1 steps with 140 atoms

Minimization stats:
  Stopping criterion = linesearch alpha is zero
  Energy initial, next-to-last, final =
  Force two-norm initial, final = 91.2519 91.2519
  Force max component initial, final = 63.3465 63.3465
  Final line search alpha, max atom move = 1.17616e-12 7.45058e-11
  Iterations, force evaluations = 1 55

unfix           1
min_style       fire
variable        tempstp    equal $(step)
variable        tempstp    equal 9003
variable        CellMinStep equal 9003
minimize        1.0e-15 1.0e-15 10000 100000
  Parameters for fire:
    dmax delaystep dtgrow dtshrink alpha0 alphashrink tmax tmin    integrator halfstepback
     0.1        20    1.1      0.5   0.25        0.99   10 0.02 eulerimplicit          yes
Step Temp E_pair E_mol TotEng Press
9003            0    85.465648    1516.9692    1602.4348   -2401.8494
Loop time of 0.00900882 on 1 procs for 54 steps with 140 atoms

Minimization stats:
  Stopping criterion = energy tolerance
  Energy initial, next-to-last, final =
  Force two-norm initial, final = 3.2361e-05 3.01083e-05
  Force max component initial, final = 1.54036e-05 1.43276e-05
  Final line search alpha, max atom move = 0 0
  Iterations, force evaluations = 54 54

variable        AtomMinStep equal 9003
variable        temppe     equal $(pe)
variable        temppe     equal 1602.4348060073025408
variable        min_E      equal abs(1602.43480600741-1602.4348060073)
jump SELF break_min
undump          NiPyC2_relax_sc211_meta_functionalized_O-CH3_xyzmov

# Dump last snapshot for restart
variable curr_lx equal lx
variable curr_ly equal ly
variable curr_lz equal lz
change_box all x final 0 13.1656394482511 y final 0 9.87177127285613 z final 0 11.4321463559993
  triclinic box = (0 1.32581 -0.578934) to (13.1656 11.1976 10.8532) with tilt (0 -0.253243 0)
  triclinic box = (0 0 -0.578934) to (13.1656 9.87177 10.8532) with tilt (0 -0.253243 0)
  triclinic box = (0 0 0) to (13.1656 9.87177 11.4321) with tilt (0 -0.253243 0)

reset_timestep 0
dump            NiPyC2_relax_sc211_meta_functionalized_O-CH3_restart all atom 1 NiPyC2_relax_sc211_meta_functionalized_O-CH3_restart.lammpstrj
dump_modify     NiPyC2_relax_sc211_meta_functionalized_O-CH3_restart scale no sort id
run 0
Step Temp E_pair E_mol TotEng Press
0 8.399468e-11    85.465648    1516.9692    1602.4348   -2401.8491
Loop time of 8.7099e-07 on 1 procs for 0 steps with 140 atoms

undump          NiPyC2_relax_sc211_meta_functionalized_O-CH3_restart
units           real
atom_style      full
boundary        p p p

pair_style      lj/cut 5.000
bond_style      harmonic
angle_style     hybrid fourier cosine/periodic
dihedral_style  harmonic
improper_style  fourier

special_bonds   lj/coul 0.0 0.0 1.0
pair_modify     tail yes mix arithmetic
dielectric      1.0
box tilt        large
read_data       data.NiPyC2_relax_sc211_meta_functionalized_O-CH3
  triclinic box = (0 0 0) to (12.5056 12.5234 10.2743) with tilt (0 -0.227594 0)
  reading atoms ...
  140 atoms
  scanning bonds ...
  scanning angles ...
  scanning dihedrals ...
  scanning impropers ...
  reading bonds ...
  160 bonds
  reading angles ...
  300 angles
  reading dihedrals ...
  296 dihedrals
  reading impropers ...
  168 impropers

#### Atom Groupings ####
group           fram     id   1:140
140 atoms in group fram
#### END Atom Groupings ####

dump            NiPyC2_relax_sc211_meta_functionalized_O-CH3_xyzmov all xyz 20000 NiPyC2_relax_sc211_meta_functionalized_O-CH3_mov.xyz
dump_modify     NiPyC2_relax_sc211_meta_functionalized_O-CH3_xyzmov element Ni O N C H O C
min_style       cg
print           "MinStep,CellMinStep,AtomMinStep,FinalStep,Energy,EDiff,vol,lx,ly,lz,xy,xz,yz" file NiPyC2_relax_sc211_meta_functionalized_O-CH3.min.csv screen no
variable        min_eval   equal 1.00e-06
variable        prev_E     equal 50000.00
variable        iter       loop 100000
label           loop_min
min_style       cg
variable        tempstp    equal $(step)
variable        tempstp    equal 0
variable        CellMinStep equal 0
minimize        1.0e-15 1.0e-15 10000 100000
  update every 1 steps, delay 0 steps, check yes
Step Temp E_pair E_mol TotEng Press
0            0    17416.407    2378.5835    19794.991    2932139.9
Loop time of 0.119373 on 1 procs for 315 steps with 140 atoms

Minimization stats:
  Stopping criterion = linesearch alpha is zero
  Energy initial, next-to-last, final =
  Force two-norm initial, final = 74075.5 13.6801
  Force max component initial, final = 28273.8 3.43325
  Final line search alpha, max atom move = 4.32581e-11 1.48516e-10
  Iterations, force evaluations = 315 675

variable        AtomMinStep equal 0
variable        temppe     equal $(pe)
variable        temppe     equal 1763.7478787092923085
variable        min_E      equal abs(50000-1763.74787870929)
variable        prev_E     equal 1763.74787870929
next            iter
jump            SELF loop_min
min_style       cg
variable        tempstp    equal $(step)
variable        tempstp    equal 315
variable        CellMinStep equal 315
minimize        1.0e-15 1.0e-15 10000 100000
Step Temp E_pair E_mol TotEng Press
315            0    38.731232    1725.0166    1763.7479   -80750.055
Loop time of 0.0177949 on 1 procs for 30 steps with 140 atoms

Minimization stats:
  Stopping criterion = linesearch alpha is zero
  Energy initial, next-to-last, final =
  Force two-norm initial, final = 13.6801 7.60161
  Force max component initial, final = 3.43325 1.57277
  Final line search alpha, max atom move = 1.49202e-10 2.3466e-10
  Iterations, force evaluations = 30 113

variable        AtomMinStep equal 315
variable        temppe     equal $(pe)
variable        temppe     equal 1762.0118903027473607
variable        min_E      equal abs(1763.74787870929-1762.01189030275)
variable        prev_E     equal 1762.01189030275
next            iter
jump            SELF loop_min
min_style       cg
variable        tempstp    equal $(step)
variable        tempstp    equal 345
variable        CellMinStep equal 345
minimize        1.0e-15 1.0e-15 10000 100000
Step Temp E_pair E_mol TotEng Press
345            0    36.281211    1725.7307    1762.0119   -81841.966
Loop time of 0.0113116 on 1 procs for 10 steps with 140 atoms

Minimization stats:
  Stopping criterion = linesearch alpha is zero
  Energy initial, next-to-last, final =
  Force two-norm initial, final = 7.60161 4.39758
  Force max component initial, final = 1.57277 0.970627
  Final line search alpha, max atom move = 4.93284e-10 4.78795e-10
  Iterations, force evaluations = 10 71

variable        AtomMinStep equal 345
variable        temppe     equal $(pe)
variable        temppe     equal 1761.9359085143034918
variable        min_E      equal abs(1762.01189030275-1761.9359085143)
variable        prev_E     equal 1761.9359085143
next            iter
jump            SELF loop_min
min_style       cg
variable        tempstp    equal $(step)
variable        tempstp    equal 355
variable        CellMinStep equal 355
minimize        1.0e-15 1.0e-15 10000 100000
Step Temp E_pair E_mol TotEng Press
355            0    36.432367    1725.5035    1761.9359   -81786.887
Loop time of 0.0100475 on 1 procs for 3 steps with 140 atoms

Minimization stats:
  Stopping criterion = linesearch alpha is zero
  Energy initial, next-to-last, final =
  Force two-norm initial, final = 4.39758 2.51748
  Force max component initial, final = 0.970627 0.513803
  Final line search alpha, max atom move = 1.24718e-09 6.40807e-10
  Iterations, force evaluations = 3 62

variable        AtomMinStep equal 355
variable        temppe     equal $(pe)
variable        temppe     equal 1761.9304012475640775
variable        min_E      equal abs(1761.9359085143-1761.93040124756)
variable        prev_E     equal 1761.93040124756
next            iter
jump            SELF loop_min
min_style       cg
variable        tempstp    equal $(step)
variable        tempstp    equal 358
variable        CellMinStep equal 358
minimize        1.0e-15 1.0e-15 10000 100000
Step Temp E_pair E_mol TotEng Press
358            0    36.428713    1725.5017    1761.9304   -81792.595
Loop time of 0.00874833 on 1 procs for 1 steps with 140 atoms

Minimization stats:
  Stopping criterion = linesearch alpha is zero
  Energy initial, next-to-last, final =
  Force two-norm initial, final = 2.51748 2.51748
  Force max component initial, final = 0.513803 0.513803
  Final line search alpha, max atom move = 1.45009e-09 7.45058e-10
  Iterations, force evaluations = 1 54

variable        AtomMinStep equal 358
variable        temppe     equal $(pe)
variable        temppe     equal 1761.9304012475633954
variable        min_E      equal abs(1761.93040124756-1761.93040124756)
jump SELF break_min
undump          NiPyC2_relax_sc211_meta_functionalized_O-CH3_xyzmov

# Dump last snapshot for restart
variable curr_lx equal lx
variable curr_ly equal ly
variable curr_lz equal lz
change_box all x final 0 12.5056 y final 0 12.5234 z final 0 10.274279
  triclinic box = (0 0 0) to (12.5056 12.5234 10.2743) with tilt (0 -0.227594 0)
  triclinic box = (0 0 0) to (12.5056 12.5234 10.2743) with tilt (0 -0.227594 0)
  triclinic box = (0 0 0) to (12.5056 12.5234 10.2743) with tilt (0 -0.227594 0)

reset_timestep 0
dump            NiPyC2_relax_sc211_meta_functionalized_O-CH3_restart all atom 1 NiPyC2_relax_sc211_meta_functionalized_O-CH3_restart.lammpstrj
dump_modify     NiPyC2_relax_sc211_meta_functionalized_O-CH3_restart scale no sort id
run 0
Step Temp E_pair E_mol TotEng Press
0            0    36.428713    1725.5017    1761.9304   -81792.595
Loop time of 7.90009e-07 on 1 procs for 0 steps with 140 atoms

undump          NiPyC2_relax_sc211_meta_functionalized_O-CH3_restart
