units           real
atom_style      full
boundary        p p p

pair_style      lj/cut 5.000
bond_style      harmonic
angle_style     hybrid cosine/periodic fourier
dihedral_style  harmonic
improper_style  fourier

special_bonds   lj/coul 0.0 0.0 1.0
pair_modify     tail yes mix arithmetic
dielectric      1.0
box tilt        large
read_data       data.NiPyC2_relax_sc211_ortho_functionalized_O-CH3
  triclinic box = (0 0 0) to (12.5056 12.5234 10.2743) with tilt (0 -0.227594 0)
  reading atoms ...
  140 atoms
  scanning bonds ...
  scanning angles ...
  scanning dihedrals ...
  scanning impropers ...
  reading bonds ...
  160 bonds
  reading angles ...
  300 angles
  reading dihedrals ...
  296 dihedrals
  reading impropers ...
  168 impropers

#### Atom Groupings ####
group           fram     id   1:140
140 atoms in group fram
#### END Atom Groupings ####

dump            NiPyC2_relax_sc211_ortho_functionalized_O-CH3_xyzmov all xyz 20000 NiPyC2_relax_sc211_ortho_functionalized_O-CH3_mov.xyz
dump_modify     NiPyC2_relax_sc211_ortho_functionalized_O-CH3_xyzmov element Ni O N C H O C
min_style       cg
print           "MinStep,CellMinStep,AtomMinStep,FinalStep,Energy,EDiff" file NiPyC2_relax_sc211_ortho_functionalized_O-CH3.min.csv screen no
variable        min_eval   equal 1.00e-06
variable        prev_E     equal 50000.00
variable        iter       loop 100000
label           loop_min
min_style       cg
fix             1 all box/relax aniso 0.0 vmax 0.01
minimize        1.0e-15 1.0e-15 10000 100000
  update every 1 steps, delay 0 steps, check yes
Step Temp E_pair E_mol TotEng Press Volume
0            0 4.4187016e+10    2374.5144 4.4187018e+10 7.5318427e+12    1609.0819
Loop time of 0.144621 on 1 procs for 448 steps with 140 atoms

Minimization stats:
  Stopping criterion = linesearch alpha is zero
  Energy initial, next-to-last, final =
  Force two-norm initial, final = 2.09068e+12 92.195
  Force max component initial, final = 1.18739e+12 53.9143
  Final line search alpha, max atom move = 1.34384e-12 7.24522e-11
  Iterations, force evaluations = 448 770

unfix           1
min_style       fire
variable        tempstp    equal $(step)
variable        tempstp    equal 448
variable        CellMinStep equal 448
minimize        1.0e-15 1.0e-15 10000 100000
  Parameters for fire:
    dmax delaystep dtgrow dtshrink alpha0 alphashrink tmax tmin    integrator halfstepback
     0.1        20    1.1      0.5   0.25        0.99   10 0.02 eulerimplicit          yes
Step Temp E_pair E_mol TotEng Press
448            0    122.99942    1582.6704    1705.6698    1766.3111
Loop time of 0.908196 on 1 procs for 5787 steps with 140 atoms

Minimization stats:
  Stopping criterion = energy tolerance
  Energy initial, next-to-last, final =
  Force two-norm initial, final = 57.0701 4.16339e-05
  Force max component initial, final = 9.92525 9.11523e-06
  Final line search alpha, max atom move = 0 0
  Iterations, force evaluations = 5787 5787

variable        AtomMinStep equal 448
variable        temppe     equal $(pe)
variable        temppe     equal 1690.7110614432865532
variable        min_E      equal abs(50000-1690.71106144329)
variable        prev_E     equal 1690.71106144329
next            iter
jump            SELF loop_min
min_style       cg
fix             1 all box/relax aniso 0.0 vmax 0.01
minimize        1.0e-15 1.0e-15 10000 100000
Step Temp E_pair E_mol TotEng Press Volume
6235 1.5778497e-10    102.48654    1588.2245    1690.7111   -9367.5722    1540.0703
Loop time of 0.0132049 on 1 procs for 8 steps with 140 atoms

Minimization stats:
  Stopping criterion = linesearch alpha is zero
  Energy initial, next-to-last, final =
  Force two-norm initial, final = 418.527 30.5194
  Force max component initial, final = 369.813 13.6439
  Final line search alpha, max atom move = 1.31901e-11 1.79965e-10
  Iterations, force evaluations = 8 67

unfix           1
min_style       fire
variable        tempstp    equal $(step)
variable        tempstp    equal 6243
variable        CellMinStep equal 6243
minimize        1.0e-15 1.0e-15 10000 100000
  Parameters for fire:
    dmax delaystep dtgrow dtshrink alpha0 alphashrink tmax tmin    integrator halfstepback
     0.1        20    1.1      0.5   0.25        0.99   10 0.02 eulerimplicit          yes
Step Temp E_pair E_mol TotEng Press
6243            0    113.66091    1575.4308    1689.0917     107.9091
Loop time of 0.552078 on 1 procs for 3567 steps with 140 atoms

Minimization stats:
  Stopping criterion = energy tolerance
  Energy initial, next-to-last, final =
  Force two-norm initial, final = 22.6819 3.42666e-05
  Force max component initial, final = 4.06325 7.10288e-06
  Final line search alpha, max atom move = 0 0
  Iterations, force evaluations = 3567 3567

variable        AtomMinStep equal 6243
variable        temppe     equal $(pe)
variable        temppe     equal 1688.1888177308194372
variable        min_E      equal abs(1690.71106144329-1688.18881773082)
variable        prev_E     equal 1688.18881773082
next            iter
jump            SELF loop_min
min_style       cg
fix             1 all box/relax aniso 0.0 vmax 0.01
minimize        1.0e-15 1.0e-15 10000 100000
Step Temp E_pair E_mol TotEng Press Volume
9810 1.1244996e-10    105.69237    1582.4964    1688.1888    -4444.515    1526.1705
Loop time of 0.010478 on 1 procs for 3 steps with 140 atoms

Minimization stats:
  Stopping criterion = linesearch alpha is zero
  Energy initial, next-to-last, final =
  Force two-norm initial, final = 211.759 20.8112
  Force max component initial, final = 195.094 13.384
  Final line search alpha, max atom move = 1.50156e-11 2.00968e-10
  Iterations, force evaluations = 3 57

unfix           1
min_style       fire
variable        tempstp    equal $(step)
variable        tempstp    equal 9813
variable        CellMinStep equal 9813
minimize        1.0e-15 1.0e-15 10000 100000
  Parameters for fire:
    dmax delaystep dtgrow dtshrink alpha0 alphashrink tmax tmin    integrator halfstepback
     0.1        20    1.1      0.5   0.25        0.99   10 0.02 eulerimplicit          yes
Step Temp E_pair E_mol TotEng Press
9813            0    109.41964    1578.5012    1687.9208   -160.53765
Loop time of 0.492704 on 1 procs for 3129 steps with 140 atoms

Minimization stats:
  Stopping criterion = energy tolerance
  Energy initial, next-to-last, final =
  Force two-norm initial, final = 14.7679 4.43257e-05
  Force max component initial, final = 2.72243 9.81403e-06
  Final line search alpha, max atom move = 0 0
  Iterations, force evaluations = 3129 3129

variable        AtomMinStep equal 9813
variable        temppe     equal $(pe)
variable        temppe     equal 1687.7989736023785099
variable        min_E      equal abs(1688.18881773082-1687.79897360238)
variable        prev_E     equal 1687.79897360238
next            iter
jump            SELF loop_min
min_style       cg
fix             1 all box/relax aniso 0.0 vmax 0.01
minimize        1.0e-15 1.0e-15 10000 100000
Step Temp E_pair E_mol TotEng Press Volume
12942 1.9853501e-10    106.92667    1580.8723     1687.799   -2778.4931    1521.5536
Loop time of 0.0101807 on 1 procs for 3 steps with 140 atoms

Minimization stats:
  Stopping criterion = linesearch alpha is zero
  Energy initial, next-to-last, final =
  Force two-norm initial, final = 144.112 14.6669
  Force max component initial, final = 136.836 9.58471
  Final line search alpha, max atom move = 4.75934e-11 4.56169e-10
  Iterations, force evaluations = 3 55

unfix           1
min_style       fire
variable        tempstp    equal $(step)
variable        tempstp    equal 12945
variable        CellMinStep equal 12945
minimize        1.0e-15 1.0e-15 10000 100000
  Parameters for fire:
    dmax delaystep dtgrow dtshrink alpha0 alphashrink tmax tmin    integrator halfstepback
     0.1        20    1.1      0.5   0.25        0.99   10 0.02 eulerimplicit          yes
Step Temp E_pair E_mol TotEng Press
12945            0    109.27189    1578.3699    1687.6417   -141.39253
Loop time of 0.386764 on 1 procs for 2478 steps with 140 atoms

Minimization stats:
  Stopping criterion = energy tolerance
  Energy initial, next-to-last, final =
  Force two-norm initial, final = 10.6965 4.20963e-05
  Force max component initial, final = 1.88454 1.00379e-05
  Final line search alpha, max atom move = 0 0
  Iterations, force evaluations = 2478 2478

variable        AtomMinStep equal 12945
variable        temppe     equal $(pe)
variable        temppe     equal 1687.6622192546763017
variable        min_E      equal abs(1687.79897360238-1687.66221925468)
variable        prev_E     equal 1687.66221925468
next            iter
jump            SELF loop_min
min_style       cg
fix             1 all box/relax aniso 0.0 vmax 0.01
minimize        1.0e-15 1.0e-15 10000 100000
Step Temp E_pair E_mol TotEng Press Volume
15423 1.4964018e-10    107.84962    1579.8126    1687.6622   -1650.2166    1518.6215
Loop time of 0.0107188 on 1 procs for 3 steps with 140 atoms

Minimization stats:
  Stopping criterion = linesearch alpha is zero
  Energy initial, next-to-last, final =
  Force two-norm initial, final = 100.195 10.3116
  Force max component initial, final = 97.189 6.21875
  Final line search alpha, max atom move = 6.72651e-11 4.18305e-10
  Iterations, force evaluations = 3 55

unfix           1
min_style       fire
variable        tempstp    equal $(step)
variable        tempstp    equal 15426
variable        CellMinStep equal 15426
minimize        1.0e-15 1.0e-15 10000 100000
  Parameters for fire:
    dmax delaystep dtgrow dtshrink alpha0 alphashrink tmax tmin    integrator halfstepback
     0.1        20    1.1      0.5   0.25        0.99   10 0.02 eulerimplicit          yes
Step Temp E_pair E_mol TotEng Press
15426            0    109.30268    1578.2927    1687.5954   -125.51369
Loop time of 0.360422 on 1 procs for 2287 steps with 140 atoms

Minimization stats:
  Stopping criterion = energy tolerance
  Energy initial, next-to-last, final =
  Force two-norm initial, final = 8.07886 4.29882e-05
  Force max component initial, final = 1.30872 9.04289e-06
  Final line search alpha, max atom move = 0 0
  Iterations, force evaluations = 2287 2287

variable        AtomMinStep equal 15426
variable        temppe     equal $(pe)
variable        temppe     equal 1687.5560869381197335
variable        min_E      equal abs(1687.66221925468-1687.55608693812)
variable        prev_E     equal 1687.55608693812
next            iter
jump            SELF loop_min
min_style       cg
fix             1 all box/relax aniso 0.0 vmax 0.01
minimize        1.0e-15 1.0e-15 10000 100000
Step Temp E_pair E_mol TotEng Press Volume
17713 1.554403e-10    108.42923    1579.1269    1687.5561   -909.10078    1516.8238
Loop time of 0.00958685 on 1 procs for 2 steps with 140 atoms

Minimization stats:
  Stopping criterion = linesearch alpha is zero
  Energy initial, next-to-last, final =
  Force two-norm initial, final = 73.2207 16.2129
  Force max component initial, final = 70.6589 14.7889
  Final line search alpha, max atom move = 4.11566e-11 6.08662e-10
  Iterations, force evaluations = 2 51

unfix           1
min_style       fire
variable        tempstp    equal $(step)
variable        tempstp    equal 17715
variable        CellMinStep equal 17715
minimize        1.0e-15 1.0e-15 10000 100000
  Parameters for fire:
    dmax delaystep dtgrow dtshrink alpha0 alphashrink tmax tmin    integrator halfstepback
     0.1        20    1.1      0.5   0.25        0.99   10 0.02 eulerimplicit          yes
Step Temp E_pair E_mol TotEng Press
17715            0    109.45602    1578.0624    1687.5184    167.64037
Loop time of 0.388362 on 1 procs for 2450 steps with 140 atoms

Minimization stats:
  Stopping criterion = energy tolerance
  Energy initial, next-to-last, final =
  Force two-norm initial, final = 6.05723 4.00116e-05
  Force max component initial, final = 1.01369 8.66861e-06
  Final line search alpha, max atom move = 0 0
  Iterations, force evaluations = 2450 2450

variable        AtomMinStep equal 17715
variable        temppe     equal $(pe)
variable        temppe     equal 1687.4765152255556586
variable        min_E      equal abs(1687.55608693812-1687.47651522556)
variable        prev_E     equal 1687.47651522556
next            iter
jump            SELF loop_min
min_style       cg
fix             1 all box/relax aniso 0.0 vmax 0.01
minimize        1.0e-15 1.0e-15 10000 100000
Step Temp E_pair E_mol TotEng Press Volume
20165 1.275253e-10     108.7881    1578.6884    1687.4765   -391.13242    1515.5384
Loop time of 0.00987987 on 1 procs for 1 steps with 140 atoms

Minimization stats:
  Stopping criterion = linesearch alpha is zero
  Energy initial, next-to-last, final =
  Force two-norm initial, final = 56.8757 56.8757
  Force max component initial, final = 52.123 52.123
  Final line search alpha, max atom move = 2.85885e-12 1.49012e-10
  Iterations, force evaluations = 1 53

unfix           1
min_style       fire
variable        tempstp    equal $(step)
variable        tempstp    equal 20166
variable        CellMinStep equal 20166
minimize        1.0e-15 1.0e-15 10000 100000
  Parameters for fire:
    dmax delaystep dtgrow dtshrink alpha0 alphashrink tmax tmin    integrator halfstepback
     0.1        20    1.1      0.5   0.25        0.99   10 0.02 eulerimplicit          yes
Step Temp E_pair E_mol TotEng Press
20166            0     108.7881    1578.6884    1687.4765   -391.13242
Loop time of 0.0147512 on 1 procs for 91 steps with 140 atoms

Minimization stats:
  Stopping criterion = energy tolerance
  Energy initial, next-to-last, final =
  Force two-norm initial, final = 4.00116e-05 3.17403e-05
  Force max component initial, final = 8.66861e-06 6.86e-06
  Final line search alpha, max atom move = 0 0
  Iterations, force evaluations = 91 91

variable        AtomMinStep equal 20166
variable        temppe     equal $(pe)
variable        temppe     equal 1687.4765152253255565
variable        min_E      equal abs(1687.47651522556-1687.47651522533)
jump SELF break_min
undump          NiPyC2_relax_sc211_ortho_functionalized_O-CH3_xyzmov

# Dump last snapshot for restart
variable curr_lx equal lx
variable curr_ly equal ly
variable curr_lz equal lz
change_box all x final 0 14.0946394538788 y final 0 11.2549634176882 z final 0 9.55364004562307
  triclinic box = (0 0.634218 0.360319) to (14.0946 11.8892 9.91396) with tilt (0 -0.211631 0)
  triclinic box = (0 0 0.360319) to (14.0946 11.255 9.91396) with tilt (0 -0.211631 0)
  triclinic box = (0 0 0) to (14.0946 11.255 9.55364) with tilt (0 -0.211631 0)

reset_timestep 0
dump            NiPyC2_relax_sc211_ortho_functionalized_O-CH3_restart all atom 1 NiPyC2_relax_sc211_ortho_functionalized_O-CH3_restart.lammpstrj
dump_modify     NiPyC2_relax_sc211_ortho_functionalized_O-CH3_restart scale no sort id
run 0
Step Temp E_pair E_mol TotEng Press
0 7.8872151e-11     108.7881    1578.6884    1687.4765    -391.1327
Loop time of 7.69011e-07 on 1 procs for 0 steps with 140 atoms

undump          NiPyC2_relax_sc211_ortho_functionalized_O-CH3_restart
