units           real
atom_style      full
boundary        p p p

pair_style      lj/cut 5.000
bond_style      harmonic
angle_style     hybrid fourier cosine/periodic
dihedral_style  harmonic
improper_style  fourier

dielectric      1.0
pair_modify     tail yes mix arithmetic
special_bonds   lj/coul 0.0 0.0 1.0
box tilt        large
read_data       data.NiPyC2_relax_sc211_meta_functionalized_CH2-CH3
  triclinic box = (0 0 0) to (12.5056 12.5234 10.2743) with tilt (0 -0.227594 0)
  reading atoms ...
  156 atoms
  scanning bonds ...
  scanning angles ...
  scanning dihedrals ...
  scanning impropers ...
  reading bonds ...
  176 bonds
  reading angles ...
  340 angles
  reading dihedrals ...
  376 dihedrals
  reading impropers ...
  168 impropers

#### Atom Groupings ####
group           fram     id   1:156
156 atoms in group fram
#### END Atom Groupings ####

dump            NiPyC2_relax_sc211_meta_functionalized_CH2-CH3_xyzmov all xyz 20000 NiPyC2_relax_sc211_meta_functionalized_CH2-CH3_mov.xyz
dump_modify     NiPyC2_relax_sc211_meta_functionalized_CH2-CH3_xyzmov element Ni O N C H C
min_style       cg
print           "MinStep,CellMinStep,AtomMinStep,FinalStep,Energy,EDiff" file NiPyC2_relax_sc211_meta_functionalized_CH2-CH3.min.csv screen no
variable        min_eval   equal 1.00e-06
variable        prev_E     equal 50000.00
variable        iter       loop 100000
label           loop_min
min_style       cg
fix             1 all box/relax aniso 0.0 vmax 0.01
minimize        1.0e-15 1.0e-15 10000 100000
  update every 1 steps, delay 0 steps, check yes
Step Temp E_pair E_mol TotEng Press Volume
0            0    121954.66    2226.8489    124181.51     20792224    1609.0819
Loop time of 0.0996985 on 1 procs for 230 steps with 156 atoms

Minimization stats:
  Stopping criterion = linesearch alpha is zero
  Energy initial, next-to-last, final =
  Force two-norm initial, final = 1.45657e+06 82.6052
  Force max component initial, final = 1.07188e+06 56.3903
  Final line search alpha, max atom move = 1.5435e-12 8.70386e-11
  Iterations, force evaluations = 230 430

unfix           1
min_style       fire
variable        tempstp    equal $(step)
variable        tempstp    equal 230
variable        CellMinStep equal 230
minimize        1.0e-15 1.0e-15 10000 100000
  Parameters for fire:
    dmax delaystep dtgrow dtshrink alpha0 alphashrink tmax tmin    integrator halfstepback
     0.1        20    1.1      0.5   0.25        0.99   10 0.02 eulerimplicit          yes
Step Temp E_pair E_mol TotEng Press
230            0    162.24773    1693.7977    1856.0455    868.25511
Loop time of 1.48646 on 1 procs for 7794 steps with 156 atoms

Minimization stats:
  Stopping criterion = energy tolerance
  Energy initial, next-to-last, final =
  Force two-norm initial, final = 60.1206 3.13725e-05
  Force max component initial, final = 9.46745 1.37504e-05
  Final line search alpha, max atom move = 0 0
  Iterations, force evaluations = 7794 7794

variable        AtomMinStep equal 230
variable        temppe     equal $(pe)
variable        temppe     equal 1687.4263268209156195
variable        min_E      equal abs(50000-1687.42632682092)
variable        prev_E     equal 1687.42632682092
next            iter
jump            SELF loop_min
min_style       cg
fix             1 all box/relax aniso 0.0 vmax 0.01
minimize        1.0e-15 1.0e-15 10000 100000
Step Temp E_pair E_mol TotEng Press Volume
8024 7.829326e-11    81.817443    1605.6089    1687.4263   -21696.441    1585.2484
Loop time of 0.030213 on 1 procs for 30 steps with 156 atoms

Minimization stats:
  Stopping criterion = linesearch alpha is zero
  Energy initial, next-to-last, final =
  Force two-norm initial, final = 1055.88 24.3054
  Force max component initial, final = 961.273 14.3608
  Final line search alpha, max atom move = 1.09477e-11 1.57217e-10
  Iterations, force evaluations = 30 113

unfix           1
min_style       fire
variable        tempstp    equal $(step)
variable        tempstp    equal 8054
variable        CellMinStep equal 8054
minimize        1.0e-15 1.0e-15 10000 100000
  Parameters for fire:
    dmax delaystep dtgrow dtshrink alpha0 alphashrink tmax tmin    integrator halfstepback
     0.1        20    1.1      0.5   0.25        0.99   10 0.02 eulerimplicit          yes
Step Temp E_pair E_mol TotEng Press
8054            0     106.3271    1571.7921    1678.1192    412.13223
Loop time of 1.8883 on 1 procs for 10000 steps with 156 atoms

Minimization stats:
  Stopping criterion = max iterations
  Energy initial, next-to-last, final =
  Force two-norm initial, final = 16.3288 7.17216e-05
  Force max component initial, final = 2.1022 4.80612e-05
  Final line search alpha, max atom move = 0 0
  Iterations, force evaluations = 10000 10000

variable        AtomMinStep equal 8054
variable        temppe     equal $(pe)
variable        temppe     equal 1676.8357961246226751
variable        min_E      equal abs(1687.42632682092-1676.83579612462)
variable        prev_E     equal 1676.83579612462
next            iter
jump            SELF loop_min
min_style       cg
fix             1 all box/relax aniso 0.0 vmax 0.01
minimize        1.0e-15 1.0e-15 10000 100000
Step Temp E_pair E_mol TotEng Press Volume
18054 2.7086216e-11    102.04355    1574.7922    1676.8358   -1673.4406    1551.1794
Loop time of 0.0130613 on 1 procs for 3 steps with 156 atoms

Minimization stats:
  Stopping criterion = linesearch alpha is zero
  Energy initial, next-to-last, final =
  Force two-norm initial, final = 189.847 18.5807
  Force max component initial, final = 178.026 10.4404
  Final line search alpha, max atom move = 2.0845e-11 2.1763e-10
  Iterations, force evaluations = 3 57

unfix           1
min_style       fire
variable        tempstp    equal $(step)
variable        tempstp    equal 18057
variable        CellMinStep equal 18057
minimize        1.0e-15 1.0e-15 10000 100000
  Parameters for fire:
    dmax delaystep dtgrow dtshrink alpha0 alphashrink tmax tmin    integrator halfstepback
     0.1        20    1.1      0.5   0.25        0.99   10 0.02 eulerimplicit          yes
Step Temp E_pair E_mol TotEng Press
18057            0    103.44249    1573.2175      1676.66   -346.14795
Loop time of 1.04366 on 1 procs for 5611 steps with 156 atoms

Minimization stats:
  Stopping criterion = energy tolerance
  Energy initial, next-to-last, final =
  Force two-norm initial, final = 12.1222 3.96829e-05
  Force max component initial, final = 2.05495 1.79211e-05
  Final line search alpha, max atom move = 0 0
  Iterations, force evaluations = 5611 5611

variable        AtomMinStep equal 18057
variable        temppe     equal $(pe)
variable        temppe     equal 1676.5674721090554158
variable        min_E      equal abs(1676.83579612462-1676.56747210906)
variable        prev_E     equal 1676.56747210906
next            iter
jump            SELF loop_min
min_style       cg
fix             1 all box/relax aniso 0.0 vmax 0.01
minimize        1.0e-15 1.0e-15 10000 100000
Step Temp E_pair E_mol TotEng Press Volume
23668 1.5118208e-10      103.093    1573.4745    1676.5675   -576.91687     1550.171
Loop time of 0.0137897 on 1 procs for 4 steps with 156 atoms

Minimization stats:
  Stopping criterion = linesearch alpha is zero
  Energy initial, next-to-last, final =
  Force two-norm initial, final = 143.3 47.1592
  Force max component initial, final = 124.732 43.2354
  Final line search alpha, max atom move = 4.02443e-12 1.73998e-10
  Iterations, force evaluations = 4 61

unfix           1
min_style       fire
variable        tempstp    equal $(step)
variable        tempstp    equal 23672
variable        CellMinStep equal 23672
minimize        1.0e-15 1.0e-15 10000 100000
  Parameters for fire:
    dmax delaystep dtgrow dtshrink alpha0 alphashrink tmax tmin    integrator halfstepback
     0.1        20    1.1      0.5   0.25        0.99   10 0.02 eulerimplicit          yes
Step Temp E_pair E_mol TotEng Press
23672            0     103.1464    1573.2497    1676.3961   -838.60038
Loop time of 1.18839 on 1 procs for 6406 steps with 156 atoms

Minimization stats:
  Stopping criterion = energy tolerance
  Energy initial, next-to-last, final =
  Force two-norm initial, final = 10.1784 3.32282e-05
  Force max component initial, final = 1.37521 1.52412e-05
  Final line search alpha, max atom move = 0 0
  Iterations, force evaluations = 6406 6406

variable        AtomMinStep equal 23672
variable        temppe     equal $(pe)
variable        temppe     equal 1676.1575565453326817
variable        min_E      equal abs(1676.56747210906-1676.15755654533)
variable        prev_E     equal 1676.15755654533
next            iter
jump            SELF loop_min
min_style       cg
fix             1 all box/relax aniso 0.0 vmax 0.01
minimize        1.0e-15 1.0e-15 10000 100000
Step Temp E_pair E_mol TotEng Press Volume
30078 9.4203755e-11    103.22635    1572.9312    1676.1576    -153.1574    1550.7384
Loop time of 0.0177143 on 1 procs for 5 steps with 156 atoms

Minimization stats:
  Stopping criterion = linesearch alpha is zero
  Energy initial, next-to-last, final =
  Force two-norm initial, final = 107.819 20.0751
  Force max component initial, final = 88.3963 11.3505
  Final line search alpha, max atom move = 2.70172e-11 3.06658e-10
  Iterations, force evaluations = 5 61

unfix           1
min_style       fire
variable        tempstp    equal $(step)
variable        tempstp    equal 30083
variable        CellMinStep equal 30083
minimize        1.0e-15 1.0e-15 10000 100000
  Parameters for fire:
    dmax delaystep dtgrow dtshrink alpha0 alphashrink tmax tmin    integrator halfstepback
     0.1        20    1.1      0.5   0.25        0.99   10 0.02 eulerimplicit          yes
Step Temp E_pair E_mol TotEng Press
30083            0    103.12644    1572.9833    1676.1097   -437.84021
Loop time of 1.05686 on 1 procs for 5682 steps with 156 atoms

Minimization stats:
  Stopping criterion = energy tolerance
  Energy initial, next-to-last, final =
  Force two-norm initial, final = 10.006 3.99036e-05
  Force max component initial, final = 1.61724 1.82896e-05
  Final line search alpha, max atom move = 0 0
  Iterations, force evaluations = 5682 5682

variable        AtomMinStep equal 30083
variable        temppe     equal $(pe)
variable        temppe     equal 1675.9691560859585024
variable        min_E      equal abs(1676.15755654533-1675.96915608596)
variable        prev_E     equal 1675.96915608596
next            iter
jump            SELF loop_min
min_style       cg
fix             1 all box/relax aniso 0.0 vmax 0.01
minimize        1.0e-15 1.0e-15 10000 100000
Step Temp E_pair E_mol TotEng Press Volume
35765 1.1214804e-10    103.26212     1572.707    1675.9692    33.318274    1551.4637
Loop time of 0.0131137 on 1 procs for 4 steps with 156 atoms

Minimization stats:
  Stopping criterion = linesearch alpha is zero
  Energy initial, next-to-last, final =
  Force two-norm initial, final = 83.4046 6.98027
  Force max component initial, final = 64.7483 3.62825
  Final line search alpha, max atom move = 2.15911e-10 7.83378e-10
  Iterations, force evaluations = 4 57

unfix           1
min_style       fire
variable        tempstp    equal $(step)
variable        tempstp    equal 35769
variable        CellMinStep equal 35769
minimize        1.0e-15 1.0e-15 10000 100000
  Parameters for fire:
    dmax delaystep dtgrow dtshrink alpha0 alphashrink tmax tmin    integrator halfstepback
     0.1        20    1.1      0.5   0.25        0.99   10 0.02 eulerimplicit          yes
Step Temp E_pair E_mol TotEng Press
35769            0     103.2883    1572.6223    1675.9106   -59.794212
Loop time of 1.02575 on 1 procs for 5455 steps with 156 atoms

Minimization stats:
  Stopping criterion = energy tolerance
  Energy initial, next-to-last, final =
  Force two-norm initial, final = 5.91827 3.62167e-05
  Force max component initial, final = 0.905329 1.68011e-05
  Final line search alpha, max atom move = 0 0
  Iterations, force evaluations = 5455 5455

variable        AtomMinStep equal 35769
variable        temppe     equal $(pe)
variable        temppe     equal 1675.9159383482085559
variable        min_E      equal abs(1675.96915608596-1675.91593834821)
variable        prev_E     equal 1675.91593834821
next            iter
jump            SELF loop_min
min_style       cg
fix             1 all box/relax aniso 0.0 vmax 0.01
minimize        1.0e-15 1.0e-15 10000 100000
Step Temp E_pair E_mol TotEng Press Volume
41224 1.0331462e-10    103.37896     1572.537    1675.9159    200.27932    1551.7014
Loop time of 0.013003 on 1 procs for 5 steps with 156 atoms

Minimization stats:
  Stopping criterion = linesearch alpha is zero
  Energy initial, next-to-last, final =
  Force two-norm initial, final = 70.6056 7.19147
  Force max component initial, final = 50.4429 1.67732
  Final line search alpha, max atom move = 1.55724e-10 2.612e-10
  Iterations, force evaluations = 5 59

unfix           1
min_style       fire
variable        tempstp    equal $(step)
variable        tempstp    equal 41229
variable        CellMinStep equal 41229
minimize        1.0e-15 1.0e-15 10000 100000
  Parameters for fire:
    dmax delaystep dtgrow dtshrink alpha0 alphashrink tmax tmin    integrator halfstepback
     0.1        20    1.1      0.5   0.25        0.99   10 0.02 eulerimplicit          yes
Step Temp E_pair E_mol TotEng Press
41229            0    103.13481    1572.7147    1675.8496   -65.374211
Loop time of 1.0327 on 1 procs for 5536 steps with 156 atoms

Minimization stats:
  Stopping criterion = energy tolerance
  Energy initial, next-to-last, final =
  Force two-norm initial, final = 6.70855 3.17906e-05
  Force max component initial, final = 1.08853 1.46751e-05
  Final line search alpha, max atom move = 0 0
  Iterations, force evaluations = 5536 5536

variable        AtomMinStep equal 41229
variable        temppe     equal $(pe)
variable        temppe     equal 1675.8378547244581114
variable        min_E      equal abs(1675.91593834821-1675.83785472446)
variable        prev_E     equal 1675.83785472446
next            iter
jump            SELF loop_min
min_style       cg
fix             1 all box/relax aniso 0.0 vmax 0.01
minimize        1.0e-15 1.0e-15 10000 100000
Step Temp E_pair E_mol TotEng Press Volume
46765 7.3579929e-11     103.3452    1572.4927    1675.8379    253.90466    1552.3156
Loop time of 0.0111655 on 1 procs for 2 steps with 156 atoms

Minimization stats:
  Stopping criterion = linesearch alpha is zero
  Energy initial, next-to-last, final =
  Force two-norm initial, final = 56.3473 9.99685
  Force max component initial, final = 39.1274 6.41649
  Final line search alpha, max atom move = 8.6113e-11 5.52543e-10
  Iterations, force evaluations = 2 51

unfix           1
min_style       fire
variable        tempstp    equal $(step)
variable        tempstp    equal 46767
variable        CellMinStep equal 46767
minimize        1.0e-15 1.0e-15 10000 100000
  Parameters for fire:
    dmax delaystep dtgrow dtshrink alpha0 alphashrink tmax tmin    integrator halfstepback
     0.1        20    1.1      0.5   0.25        0.99   10 0.02 eulerimplicit          yes
Step Temp E_pair E_mol TotEng Press
46767            0    103.19433    1572.5805    1675.7749    -34.36146
Loop time of 1.86222 on 1 procs for 10000 steps with 156 atoms

Minimization stats:
  Stopping criterion = max iterations
  Energy initial, next-to-last, final =
  Force two-norm initial, final = 4.16663 0.00188898
  Force max component initial, final = 0.711402 0.000575605
  Final line search alpha, max atom move = 0 0
  Iterations, force evaluations = 10000 10000

variable        AtomMinStep equal 46767
variable        temppe     equal $(pe)
variable        temppe     equal 1675.7947437995994733
variable        min_E      equal abs(1675.83785472446-1675.7947437996)
variable        prev_E     equal 1675.7947437996
next            iter
jump            SELF loop_min
min_style       cg
fix             1 all box/relax aniso 0.0 vmax 0.01
minimize        1.0e-15 1.0e-15 10000 100000
Step Temp E_pair E_mol TotEng Press Volume
56767 6.2311205e-08    103.32077     1572.474    1675.7947    301.37859    1552.5756
Loop time of 0.0111493 on 1 procs for 2 steps with 156 atoms

Minimization stats:
  Stopping criterion = linesearch alpha is zero
  Energy initial, next-to-last, final =
  Force two-norm initial, final = 49.4705 9.47857
  Force max component initial, final = 35.4738 6.05641
  Final line search alpha, max atom move = 8.93424e-11 5.41094e-10
  Iterations, force evaluations = 2 51

unfix           1
min_style       fire
variable        tempstp    equal $(step)
variable        tempstp    equal 56769
variable        CellMinStep equal 56769
minimize        1.0e-15 1.0e-15 10000 100000
  Parameters for fire:
    dmax delaystep dtgrow dtshrink alpha0 alphashrink tmax tmin    integrator halfstepback
     0.1        20    1.1      0.5   0.25        0.99   10 0.02 eulerimplicit          yes
Step Temp E_pair E_mol TotEng Press
56769            0    103.15382     1572.626    1675.7798   -36.523296
Loop time of 0.959348 on 1 procs for 5172 steps with 156 atoms

Minimization stats:
  Stopping criterion = energy tolerance
  Energy initial, next-to-last, final =
  Force two-norm initial, final = 3.70656 3.54012e-05
  Force max component initial, final = 0.645067 1.63693e-05
  Final line search alpha, max atom move = 0 0
  Iterations, force evaluations = 5172 5172

variable        AtomMinStep equal 56769
variable        temppe     equal $(pe)
variable        temppe     equal 1675.7746734601792014
variable        min_E      equal abs(1675.7947437996-1675.77467346018)
variable        prev_E     equal 1675.77467346018
next            iter
jump            SELF loop_min
min_style       cg
fix             1 all box/relax aniso 0.0 vmax 0.01
minimize        1.0e-15 1.0e-15 10000 100000
Step Temp E_pair E_mol TotEng Press Volume
61941 1.1357505e-10    103.29691    1572.4778    1675.7747     314.1184    1552.8848
Loop time of 0.0118328 on 1 procs for 2 steps with 156 atoms

Minimization stats:
  Stopping criterion = linesearch alpha is zero
  Energy initial, next-to-last, final =
  Force two-norm initial, final = 43.486 8.78643
  Force max component initial, final = 31.8774 5.52242
  Final line search alpha, max atom move = 9.60264e-11 5.30298e-10
  Iterations, force evaluations = 2 51

unfix           1
min_style       fire
variable        tempstp    equal $(step)
variable        tempstp    equal 61943
variable        CellMinStep equal 61943
minimize        1.0e-15 1.0e-15 10000 100000
  Parameters for fire:
    dmax delaystep dtgrow dtshrink alpha0 alphashrink tmax tmin    integrator halfstepback
     0.1        20    1.1      0.5   0.25        0.99   10 0.02 eulerimplicit          yes
Step Temp E_pair E_mol TotEng Press
61943            0     103.0984    1572.6588    1675.7572   -38.869702
Loop time of 1.2097 on 1 procs for 6515 steps with 156 atoms

Minimization stats:
  Stopping criterion = energy tolerance
  Energy initial, next-to-last, final =
  Force two-norm initial, final = 3.27696 3.39683e-05
  Force max component initial, final = 0.578646 1.5903e-05
  Final line search alpha, max atom move = 0 0
  Iterations, force evaluations = 6515 6515

variable        AtomMinStep equal 61943
variable        temppe     equal $(pe)
variable        temppe     equal 1675.7368844185489252
variable        min_E      equal abs(1675.77467346018-1675.73688441855)
variable        prev_E     equal 1675.73688441855
next            iter
jump            SELF loop_min
min_style       cg
fix             1 all box/relax aniso 0.0 vmax 0.01
minimize        1.0e-15 1.0e-15 10000 100000
Step Temp E_pair E_mol TotEng Press Volume
68458 9.3546744e-11     103.2168    1572.5201    1675.7369    293.53417    1553.2073
Loop time of 0.0117346 on 1 procs for 1 steps with 156 atoms

Minimization stats:
  Stopping criterion = linesearch alpha is zero
  Energy initial, next-to-last, final =
  Force two-norm initial, final = 38.2419 38.2419
  Force max component initial, final = 28.1627 28.1627
  Final line search alpha, max atom move = 5.29109e-12 1.49012e-10
  Iterations, force evaluations = 1 53

unfix           1
min_style       fire
variable        tempstp    equal $(step)
variable        tempstp    equal 68459
variable        CellMinStep equal 68459
minimize        1.0e-15 1.0e-15 10000 100000
  Parameters for fire:
    dmax delaystep dtgrow dtshrink alpha0 alphashrink tmax tmin    integrator halfstepback
     0.1        20    1.1      0.5   0.25        0.99   10 0.02 eulerimplicit          yes
Step Temp E_pair E_mol TotEng Press
68459            0     103.2168    1572.5201    1675.7369    293.53417
Loop time of 0.0178974 on 1 procs for 91 steps with 156 atoms

Minimization stats:
  Stopping criterion = energy tolerance
  Energy initial, next-to-last, final =
  Force two-norm initial, final = 3.39683e-05 3.17051e-05
  Force max component initial, final = 1.5903e-05 1.47827e-05
  Final line search alpha, max atom move = 0 0
  Iterations, force evaluations = 91 91

variable        AtomMinStep equal 68459
variable        temppe     equal $(pe)
variable        temppe     equal 1675.7368844183174588
variable        min_E      equal abs(1675.73688441855-1675.73688441832)
jump SELF break_min
undump          NiPyC2_relax_sc211_meta_functionalized_CH2-CH3_xyzmov

# Dump last snapshot for restart
variable curr_lx equal lx
variable curr_ly equal ly
variable curr_lz equal lz
change_box all x final 0 13.6548591507278 y final 0 9.87760250795369 z final 0 11.5157078710217
  triclinic box = (0 1.3229 -0.620714) to (13.6549 11.2005 10.895) with tilt (0 -0.255094 0)
  triclinic box = (0 0 -0.620714) to (13.6549 9.8776 10.895) with tilt (0 -0.255094 0)
  triclinic box = (0 0 0) to (13.6549 9.8776 11.5157) with tilt (0 -0.255094 0)

reset_timestep 0
dump            NiPyC2_relax_sc211_meta_functionalized_CH2-CH3_restart all atom 1 NiPyC2_relax_sc211_meta_functionalized_CH2-CH3_restart.lammpstrj
dump_modify     NiPyC2_relax_sc211_meta_functionalized_CH2-CH3_restart scale no sort id
run 0
Step Temp E_pair E_mol TotEng Press
0 7.6261783e-11     103.2168    1572.5201    1675.7369    293.53253
Loop time of 8.10018e-07 on 1 procs for 0 steps with 156 atoms

undump          NiPyC2_relax_sc211_meta_functionalized_CH2-CH3_restart
