units           real
atom_style      full
boundary        p p p

pair_style      lj/cut 5.000
bond_style      harmonic
angle_style     hybrid cosine/periodic fourier
dihedral_style  harmonic
improper_style  fourier

dielectric      1.0
special_bonds   lj/coul 0.0 0.0 1.0
pair_modify     tail yes mix arithmetic
box tilt        large
read_data       data.NiPyC2_relax_sc211_ortho_functionalized_CH2-CH3
  triclinic box = (0 0 0) to (12.5056 12.5234 10.2743) with tilt (0 -0.227594 0)
  reading atoms ...
  156 atoms
  scanning bonds ...
  scanning angles ...
  scanning dihedrals ...
  scanning impropers ...
  reading bonds ...
  176 bonds
  reading angles ...
  340 angles
  reading dihedrals ...
  376 dihedrals
  reading impropers ...
  168 impropers

#### Atom Groupings ####
group           fram     id   1:156
156 atoms in group fram
#### END Atom Groupings ####

dump            NiPyC2_relax_sc211_ortho_functionalized_CH2-CH3_xyzmov all xyz 20000 NiPyC2_relax_sc211_ortho_functionalized_CH2-CH3_mov.xyz
dump_modify     NiPyC2_relax_sc211_ortho_functionalized_CH2-CH3_xyzmov element Ni O N C H C
min_style       cg
print           "MinStep,CellMinStep,AtomMinStep,FinalStep,Energy,EDiff" file NiPyC2_relax_sc211_ortho_functionalized_CH2-CH3.min.csv screen no
variable        min_eval   equal 1.00e-06
variable        prev_E     equal 50000.00
variable        iter       loop 100000
label           loop_min
min_style       cg
fix             1 all box/relax aniso 0.0 vmax 0.01
minimize        1.0e-15 1.0e-15 10000 100000
  update every 1 steps, delay 0 steps, check yes
Step Temp E_pair E_mol TotEng Press Volume
0            0     58075077    2232.6074     58077310 9.9002247e+09    1609.0819
Loop time of 0.273335 on 1 procs for 711 steps with 156 atoms

Minimization stats:
  Stopping criterion = linesearch alpha is zero
  Energy initial, next-to-last, final =
  Force two-norm initial, final = 6.45009e+08 50.2364
  Force max component initial, final = 2.91625e+08 25.3009
  Final line search alpha, max atom move = 2.5945e-12 6.56433e-11
  Iterations, force evaluations = 711 1260

unfix           1
min_style       fire
variable        tempstp    equal $(step)
variable        tempstp    equal 711
variable        CellMinStep equal 711
minimize        1.0e-15 1.0e-15 10000 100000
  Parameters for fire:
    dmax delaystep dtgrow dtshrink alpha0 alphashrink tmax tmin    integrator halfstepback
     0.1        20    1.1      0.5   0.25        0.99   10 0.02 eulerimplicit          yes
Step Temp E_pair E_mol TotEng Press
711            0    139.65642    1714.9024    1854.5588    413.08694
Loop time of 0.6316 on 1 procs for 3548 steps with 156 atoms

Minimization stats:
  Stopping criterion = energy tolerance
  Energy initial, next-to-last, final =
  Force two-norm initial, final = 28.8034 3.86711e-05
  Force max component initial, final = 5.38853 6.32484e-06
  Final line search alpha, max atom move = 0 0
  Iterations, force evaluations = 3548 3548

variable        AtomMinStep equal 711
variable        temppe     equal $(pe)
variable        temppe     equal 1849.2717588544635419
variable        min_E      equal abs(50000-1849.27175885446)
variable        prev_E     equal 1849.27175885446
next            iter
jump            SELF loop_min
min_style       cg
fix             1 all box/relax aniso 0.0 vmax 0.01
minimize        1.0e-15 1.0e-15 10000 100000
Step Temp E_pair E_mol TotEng Press Volume
4259 1.0711774e-10    137.52269    1711.7491    1849.2718   -2073.3854    1679.0401
Loop time of 0.0115388 on 1 procs for 3 steps with 156 atoms

Minimization stats:
  Stopping criterion = linesearch alpha is zero
  Energy initial, next-to-last, final =
  Force two-norm initial, final = 105.663 8.49132
  Force max component initial, final = 87.9928 3.84363
  Final line search alpha, max atom move = 1.40533e-10 5.40157e-10
  Iterations, force evaluations = 3 55

unfix           1
min_style       fire
variable        tempstp    equal $(step)
variable        tempstp    equal 4262
variable        CellMinStep equal 4262
minimize        1.0e-15 1.0e-15 10000 100000
  Parameters for fire:
    dmax delaystep dtgrow dtshrink alpha0 alphashrink tmax tmin    integrator halfstepback
     0.1        20    1.1      0.5   0.25        0.99   10 0.02 eulerimplicit          yes
Step Temp E_pair E_mol TotEng Press
4262            0    139.16898    1710.0339    1849.2029   -64.667408
Loop time of 0.364715 on 1 procs for 2024 steps with 156 atoms

Minimization stats:
  Stopping criterion = energy tolerance
  Energy initial, next-to-last, final =
  Force two-norm initial, final = 7.39038 3.3789e-05
  Force max component initial, final = 1.3231 4.8725e-06
  Final line search alpha, max atom move = 0 0
  Iterations, force evaluations = 2024 2024

variable        AtomMinStep equal 4262
variable        temppe     equal $(pe)
variable        temppe     equal 1849.2073407079051321
variable        min_E      equal abs(1849.27175885446-1849.20734070791)
variable        prev_E     equal 1849.20734070791
next            iter
jump            SELF loop_min
min_style       cg
fix             1 all box/relax aniso 0.0 vmax 0.01
minimize        1.0e-15 1.0e-15 10000 100000
Step Temp E_pair E_mol TotEng Press Volume
6286 8.8689934e-11    138.26384    1710.9435    1849.2073   -1528.1779     1677.318
Loop time of 0.0129612 on 1 procs for 6 steps with 156 atoms

Minimization stats:
  Stopping criterion = linesearch alpha is zero
  Energy initial, next-to-last, final =
  Force two-norm initial, final = 83.7098 8.43026
  Force max component initial, final = 69.1722 4.76633
  Final line search alpha, max atom move = 1.39877e-10 6.66701e-10
  Iterations, force evaluations = 6 61

unfix           1
min_style       fire
variable        tempstp    equal $(step)
variable        tempstp    equal 6292
variable        CellMinStep equal 6292
minimize        1.0e-15 1.0e-15 10000 100000
  Parameters for fire:
    dmax delaystep dtgrow dtshrink alpha0 alphashrink tmax tmin    integrator halfstepback
     0.1        20    1.1      0.5   0.25        0.99   10 0.02 eulerimplicit          yes
Step Temp E_pair E_mol TotEng Press
6292            0    140.14445    1708.9495     1849.094     78.62798
Loop time of 0.364444 on 1 procs for 2048 steps with 156 atoms

Minimization stats:
  Stopping criterion = energy tolerance
  Energy initial, next-to-last, final =
  Force two-norm initial, final = 6.87706 3.89186e-05
  Force max component initial, final = 1.57351 6.47344e-06
  Final line search alpha, max atom move = 0 0
  Iterations, force evaluations = 2048 2048

variable        AtomMinStep equal 6292
variable        temppe     equal $(pe)
variable        temppe     equal 1849.1114708854418041
variable        min_E      equal abs(1849.20734070791-1849.11147088544)
variable        prev_E     equal 1849.11147088544
next            iter
jump            SELF loop_min
min_style       cg
fix             1 all box/relax aniso 0.0 vmax 0.01
minimize        1.0e-15 1.0e-15 10000 100000
Step Temp E_pair E_mol TotEng Press Volume
8340 1.0722779e-10    139.06993    1710.0415    1849.1115    -939.0365    1675.4538
Loop time of 0.0110535 on 1 procs for 1 steps with 156 atoms

Minimization stats:
  Stopping criterion = linesearch alpha is zero
  Energy initial, next-to-last, final =
  Force two-norm initial, final = 59.7422 59.7422
  Force max component initial, final = 46.3087 46.3087
  Final line search alpha, max atom move = 3.21779e-12 1.49012e-10
  Iterations, force evaluations = 1 53

unfix           1
min_style       fire
variable        tempstp    equal $(step)
variable        tempstp    equal 8341
variable        CellMinStep equal 8341
minimize        1.0e-15 1.0e-15 10000 100000
  Parameters for fire:
    dmax delaystep dtgrow dtshrink alpha0 alphashrink tmax tmin    integrator halfstepback
     0.1        20    1.1      0.5   0.25        0.99   10 0.02 eulerimplicit          yes
Step Temp E_pair E_mol TotEng Press
8341            0    139.06993    1710.0415    1849.1115    -939.0365
Loop time of 0.0107429 on 1 procs for 56 steps with 156 atoms

Minimization stats:
  Stopping criterion = energy tolerance
  Energy initial, next-to-last, final =
  Force two-norm initial, final = 3.89186e-05 3.28185e-05
  Force max component initial, final = 6.47344e-06 5.4594e-06
  Final line search alpha, max atom move = 0 0
  Iterations, force evaluations = 56 56

variable        AtomMinStep equal 8341
variable        temppe     equal $(pe)
variable        temppe     equal 1849.1114708852974218
variable        min_E      equal abs(1849.11147088544-1849.1114708853)
jump SELF break_min
undump          NiPyC2_relax_sc211_ortho_functionalized_CH2-CH3_xyzmov

# Dump last snapshot for restart
variable curr_lx equal lx
variable curr_ly equal ly
variable curr_lz equal lz
change_box all x final 0 15.712724693616 y final 0 10.3136815300842 z final 0 10.3387307938917
  triclinic box = (0 1.10486 -0.0322259) to (15.7127 11.4185 10.3065) with tilt (0 -0.229022 0)
  triclinic box = (0 0 -0.0322259) to (15.7127 10.3137 10.3065) with tilt (0 -0.229022 0)
  triclinic box = (0 0 0) to (15.7127 10.3137 10.3387) with tilt (0 -0.229022 0)

reset_timestep 0
dump            NiPyC2_relax_sc211_ortho_functionalized_CH2-CH3_restart all atom 1 NiPyC2_relax_sc211_ortho_functionalized_CH2-CH3_restart.lammpstrj
dump_modify     NiPyC2_relax_sc211_ortho_functionalized_CH2-CH3_restart scale no sort id
run 0
Step Temp E_pair E_mol TotEng Press
0 9.207181e-11    139.06992    1710.0415    1849.1115   -939.04132
Loop time of 7.67992e-07 on 1 procs for 0 steps with 156 atoms

undump          NiPyC2_relax_sc211_ortho_functionalized_CH2-CH3_restart
