units           real
atom_style      full
boundary        p p p

pair_style      lj/cut 5.000
bond_style      harmonic
angle_style     hybrid fourier cosine/periodic
dihedral_style  harmonic
improper_style  fourier

pair_modify     tail yes mix arithmetic
special_bonds   lj/coul 0.0 0.0 1.0
dielectric      1.0
box tilt        large
read_data       data.NiPyC2_relax_sc211_meta_functionalized_C-3CH3
  triclinic box = (0 0 0) to (12.5056 12.5234 10.2743) with tilt (0 -0.227594 0)
  reading atoms ...
  204 atoms
  scanning bonds ...
  scanning angles ...
  scanning dihedrals ...
  scanning impropers ...
  reading bonds ...
  207 bonds
  reading angles ...
  401 angles
  reading dihedrals ...
  466 dihedrals
  reading impropers ...
  168 impropers

#### Atom Groupings ####
group           1        id   188:204
17 atoms in group 1
group           1-1      id   188
1 atoms in group 1-1
group           1-2      id   189
1 atoms in group 1-2
group           1-3      id   190
1 atoms in group 1-3
group           1-4      id   191
1 atoms in group 1-4
group           1-5      id   192
1 atoms in group 1-5
group           1-6      id   193
1 atoms in group 1-6
group           1-7      id   194
1 atoms in group 1-7
group           1-8      id   195
1 atoms in group 1-8
group           1-9      id   196
1 atoms in group 1-9
group           1-10     id   197
1 atoms in group 1-10
group           1-11     id   198
1 atoms in group 1-11
group           1-12     id   199
1 atoms in group 1-12
group           1-13     id   200
1 atoms in group 1-13
group           1-14     id   201
1 atoms in group 1-14
group           1-15     id   202
1 atoms in group 1-15
group           1-16     id   203
1 atoms in group 1-16
group           1-17     id   204
1 atoms in group 1-17
group           fram     id   1:187
187 atoms in group fram
#### END Atom Groupings ####

dump            NiPyC2_relax_sc211_meta_functionalized_C-3CH3_xyzmov all xyz 20000 NiPyC2_relax_sc211_meta_functionalized_C-3CH3_mov.xyz
dump_modify     NiPyC2_relax_sc211_meta_functionalized_C-3CH3_xyzmov element Ni O N C H C C C H
min_style       cg
print           "MinStep,CellMinStep,AtomMinStep,FinalStep,Energy,EDiff" file NiPyC2_relax_sc211_meta_functionalized_C-3CH3.min.csv screen no
variable        min_eval   equal 1.00e-06
variable        prev_E     equal 50000.00
variable        iter       loop 100000
label           loop_min
min_style       cg
fix             1 all box/relax aniso 0.0 vmax 0.01
minimize        1.0e-15 1.0e-15 10000 100000
  update every 1 steps, delay 0 steps, check yes
Step Temp E_pair E_mol TotEng Press Volume
0            0 1.4619966e+09    2330.0034 1.4619989e+09 2.4920665e+11    1609.0819
Loop time of 0.752047 on 1 procs for 1411 steps with 204 atoms

Minimization stats:
  Stopping criterion = linesearch alpha is zero
  Energy initial, next-to-last, final =
  Force two-norm initial, final = 3.44851e+10 69.6448
  Force max component initial, final = 1.78583e+10 40.1879
  Final line search alpha, max atom move = 1.95144e-12 7.84242e-11
  Iterations, force evaluations = 1411 2602

unfix           1
min_style       fire
variable        tempstp    equal $(step)
variable        tempstp    equal 1411
variable        CellMinStep equal 1411
minimize        1.0e-15 1.0e-15 10000 100000
  Parameters for fire:
    dmax delaystep dtgrow dtshrink alpha0 alphashrink tmax tmin    integrator halfstepback
     0.1        20    1.1      0.5   0.25        0.99   10 0.02 eulerimplicit          yes
Step Temp E_pair E_mol TotEng Press
1411            0    224.91341    1825.6027    2050.5161   -1182.0933
Loop time of 2.54268 on 1 procs for 10000 steps with 204 atoms

Minimization stats:
  Stopping criterion = max iterations
  Energy initial, next-to-last, final =
  Force two-norm initial, final = 44.1679 0.130954
  Force max component initial, final = 9.12496 0.0260403
  Final line search alpha, max atom move = 0 0
  Iterations, force evaluations = 10000 10000

variable        AtomMinStep equal 1411
variable        temppe     equal $(pe)
variable        temppe     equal 1966.1579392577782528
variable        min_E      equal abs(50000-1966.15793925778)
variable        prev_E     equal 1966.15793925778
next            iter
jump            SELF loop_min
min_style       cg
fix             1 all box/relax aniso 0.0 vmax 0.01
minimize        1.0e-15 1.0e-15 10000 100000
Step Temp E_pair E_mol TotEng Press Volume
11411 0.00013161172    169.60825    1796.5497     1966.158   -8219.2722    1792.3692
Loop time of 0.0187502 on 1 procs for 5 steps with 204 atoms

Minimization stats:
  Stopping criterion = linesearch alpha is zero
  Energy initial, next-to-last, final =
  Force two-norm initial, final = 441.585 63.0502
  Force max component initial, final = 351.046 41.3383
  Final line search alpha, max atom move = 2.18647e-12 9.03848e-11
  Iterations, force evaluations = 5 63

unfix           1
min_style       fire
variable        tempstp    equal $(step)
variable        tempstp    equal 11416
variable        CellMinStep equal 11416
minimize        1.0e-15 1.0e-15 10000 100000
  Parameters for fire:
    dmax delaystep dtgrow dtshrink alpha0 alphashrink tmax tmin    integrator halfstepback
     0.1        20    1.1      0.5   0.25        0.99   10 0.02 eulerimplicit          yes
Step Temp E_pair E_mol TotEng Press
11416            0    180.89397    1784.3392    1965.2332   -837.04735
Loop time of 1.34083 on 1 procs for 5244 steps with 204 atoms

Minimization stats:
  Stopping criterion = energy tolerance
  Energy initial, next-to-last, final =
  Force two-norm initial, final = 22.6506 3.13975e-05
  Force max component initial, final = 3.60169 7.69497e-06
  Final line search alpha, max atom move = 0 0
  Iterations, force evaluations = 5244 5244

variable        AtomMinStep equal 11416
variable        temppe     equal $(pe)
variable        temppe     equal 1950.5817982155017489
variable        min_E      equal abs(1966.15793925778-1950.5817982155)
variable        prev_E     equal 1950.5817982155
next            iter
jump            SELF loop_min
min_style       cg
fix             1 all box/relax aniso 0.0 vmax 0.01
minimize        1.0e-15 1.0e-15 10000 100000
Step Temp E_pair E_mol TotEng Press Volume
16660 6.7359417e-11     163.0796    1787.5022    1950.5818   -6666.7884    1783.1683
Loop time of 0.020684 on 1 procs for 8 steps with 204 atoms

Minimization stats:
  Stopping criterion = linesearch alpha is zero
  Energy initial, next-to-last, final =
  Force two-norm initial, final = 331.571 60.8834
  Force max component initial, final = 276.963 40.0809
  Final line search alpha, max atom move = 2.46474e-12 9.87889e-11
  Iterations, force evaluations = 8 69

unfix           1
min_style       fire
variable        tempstp    equal $(step)
variable        tempstp    equal 16668
variable        CellMinStep equal 16668
minimize        1.0e-15 1.0e-15 10000 100000
  Parameters for fire:
    dmax delaystep dtgrow dtshrink alpha0 alphashrink tmax tmin    integrator halfstepback
     0.1        20    1.1      0.5   0.25        0.99   10 0.02 eulerimplicit          yes
Step Temp E_pair E_mol TotEng Press
16668            0    174.98821    1774.7227    1949.7109    1278.0889
Loop time of 0.581204 on 1 procs for 2267 steps with 204 atoms

Minimization stats:
  Stopping criterion = energy tolerance
  Energy initial, next-to-last, final =
  Force two-norm initial, final = 12.0229 3.57469e-05
  Force max component initial, final = 2.44764 1.01267e-05
  Final line search alpha, max atom move = 0 0
  Iterations, force evaluations = 2267 2267

variable        AtomMinStep equal 16668
variable        temppe     equal $(pe)
variable        temppe     equal 1949.4774463000319429
variable        min_E      equal abs(1950.5817982155-1949.47744630003)
variable        prev_E     equal 1949.47744630003
next            iter
jump            SELF loop_min
min_style       cg
fix             1 all box/relax aniso 0.0 vmax 0.01
minimize        1.0e-15 1.0e-15 10000 100000
Step Temp E_pair E_mol TotEng Press Volume
18935 8.5772569e-11    170.76446     1778.713    1949.4774   -1635.7324    1773.1232
Loop time of 0.0167391 on 1 procs for 3 steps with 204 atoms

Minimization stats:
  Stopping criterion = linesearch alpha is zero
  Energy initial, next-to-last, final =
  Force two-norm initial, final = 112.436 9.69427
  Force max component initial, final = 109.737 6.2606
  Final line search alpha, max atom move = 9.5206e-11 5.96046e-10
  Iterations, force evaluations = 3 55

unfix           1
min_style       fire
variable        tempstp    equal $(step)
variable        tempstp    equal 18938
variable        CellMinStep equal 18938
minimize        1.0e-15 1.0e-15 10000 100000
  Parameters for fire:
    dmax delaystep dtgrow dtshrink alpha0 alphashrink tmax tmin    integrator halfstepback
     0.1        20    1.1      0.5   0.25        0.99   10 0.02 eulerimplicit          yes
Step Temp E_pair E_mol TotEng Press
18938            0    172.85442    1776.4467    1949.3011    75.015117
Loop time of 0.487415 on 1 procs for 1883 steps with 204 atoms

Minimization stats:
  Stopping criterion = energy tolerance
  Energy initial, next-to-last, final =
  Force two-norm initial, final = 6.49921 3.22182e-05
  Force max component initial, final = 1.18325 8.09456e-06
  Final line search alpha, max atom move = 0 0
  Iterations, force evaluations = 1883 1883

variable        AtomMinStep equal 18938
variable        temppe     equal $(pe)
variable        temppe     equal 1949.271160443662211
variable        min_E      equal abs(1949.47744630003-1949.27116044366)
variable        prev_E     equal 1949.27116044366
next            iter
jump            SELF loop_min
min_style       cg
fix             1 all box/relax aniso 0.0 vmax 0.01
minimize        1.0e-15 1.0e-15 10000 100000
Step Temp E_pair E_mol TotEng Press Volume
20821 7.8855049e-11    172.05843    1777.2127    1949.2712   -712.20815    1771.3823
Loop time of 0.0160365 on 1 procs for 1 steps with 204 atoms

Minimization stats:
  Stopping criterion = linesearch alpha is zero
  Energy initial, next-to-last, final =
  Force two-norm initial, final = 76.6622 76.6622
  Force max component initial, final = 74.3332 74.3332
  Final line search alpha, max atom move = 2.00464e-12 1.49012e-10
  Iterations, force evaluations = 1 53

unfix           1
min_style       fire
variable        tempstp    equal $(step)
variable        tempstp    equal 20822
variable        CellMinStep equal 20822
minimize        1.0e-15 1.0e-15 10000 100000
  Parameters for fire:
    dmax delaystep dtgrow dtshrink alpha0 alphashrink tmax tmin    integrator halfstepback
     0.1        20    1.1      0.5   0.25        0.99   10 0.02 eulerimplicit          yes
Step Temp E_pair E_mol TotEng Press
20822            0    172.05843    1777.2127    1949.2712   -712.20815
Loop time of 0.00704167 on 1 procs for 24 steps with 204 atoms

Minimization stats:
  Stopping criterion = energy tolerance
  Energy initial, next-to-last, final =
  Force two-norm initial, final = 3.22182e-05 6.14713e-05
  Force max component initial, final = 8.09456e-06 1.45536e-05
  Final line search alpha, max atom move = 0 0
  Iterations, force evaluations = 24 24

variable        AtomMinStep equal 20822
variable        temppe     equal $(pe)
variable        temppe     equal 1949.2711604436076414
variable        min_E      equal abs(1949.27116044366-1949.27116044361)
jump SELF break_min
undump          NiPyC2_relax_sc211_meta_functionalized_C-3CH3_xyzmov

# Dump last snapshot for restart
variable curr_lx equal lx
variable curr_ly equal ly
variable curr_lz equal lz
change_box all x final 0 15.287254738131 y final 0 11.0089768844885 z final 0 10.5253325989383
  triclinic box = (0 0.757212 -0.125527) to (15.2873 11.7662 10.3998) with tilt (0 -0.233155 0)
  triclinic box = (0 0 -0.125527) to (15.2873 11.009 10.3998) with tilt (0 -0.233155 0)
  triclinic box = (0 0 0) to (15.2873 11.009 10.5253) with tilt (0 -0.233155 0)

reset_timestep 0
dump            NiPyC2_relax_sc211_meta_functionalized_C-3CH3_restart all atom 1 NiPyC2_relax_sc211_meta_functionalized_C-3CH3_restart.lammpstrj
dump_modify     NiPyC2_relax_sc211_meta_functionalized_C-3CH3_restart scale no sort id
run 0
Step Temp E_pair E_mol TotEng Press
0 6.5891022e-11    172.05843    1777.2127    1949.2712   -712.20872
Loop time of 1.12999e-06 on 1 procs for 0 steps with 204 atoms

undump          NiPyC2_relax_sc211_meta_functionalized_C-3CH3_restart
