units           real
atom_style      full
boundary        p p p

pair_style      lj/cut 5.000
bond_style      harmonic
angle_style     hybrid cosine/periodic fourier
dihedral_style  harmonic
improper_style  fourier

pair_modify     tail yes mix arithmetic
special_bonds   lj/coul 0.0 0.0 1.0
dielectric      1.0
box tilt        large
read_data       data.NiPyC2_relax_sc211_ortho_functionalized_CH2-CH2-CH3
  triclinic box = (0 0 0) to (12.5056 12.5234 10.2743) with tilt (0 -0.227594 0)
  reading atoms ...
  180 atoms
  scanning bonds ...
  scanning angles ...
  scanning dihedrals ...
  scanning impropers ...
  reading bonds ...
  200 bonds
  reading angles ...
  388 angles
  reading dihedrals ...
  448 dihedrals
  reading impropers ...
  168 impropers

#### Atom Groupings ####
group           fram     id   1:180
180 atoms in group fram
#### END Atom Groupings ####

dump            NiPyC2_relax_sc211_ortho_functionalized_CH2-CH2-CH3_xyzmov all xyz 20000 NiPyC2_relax_sc211_ortho_functionalized_CH2-CH2-CH3_mov.xyz
dump_modify     NiPyC2_relax_sc211_ortho_functionalized_CH2-CH2-CH3_xyzmov element Ni O N C H C
min_style       cg
print           "MinStep,CellMinStep,AtomMinStep,FinalStep,Energy,EDiff" file NiPyC2_relax_sc211_ortho_functionalized_CH2-CH2-CH3.min.csv screen no
variable        min_eval   equal 1.00e-06
variable        prev_E     equal 50000.00
variable        iter       loop 100000
label           loop_min
min_style       cg
fix             1 all box/relax aniso 0.0 vmax 0.01
minimize        1.0e-15 1.0e-15 10000 100000
  update every 1 steps, delay 0 steps, check yes
Step Temp E_pair E_mol TotEng Press Volume
0            0 2.367986e+08    2234.6319 2.3680083e+08 4.0366012e+10    1609.0819
Loop time of 0.32433 on 1 procs for 759 steps with 180 atoms

Minimization stats:
  Stopping criterion = linesearch alpha is zero
  Energy initial, next-to-last, final =
  Force two-norm initial, final = 3.41353e+09 51.2161
  Force max component initial, final = 1.46647e+09 36.443
  Final line search alpha, max atom move = 2.72375e-12 9.92614e-11
  Iterations, force evaluations = 759 1255

unfix           1
min_style       fire
variable        tempstp    equal $(step)
variable        tempstp    equal 759
variable        CellMinStep equal 759
minimize        1.0e-15 1.0e-15 10000 100000
  Parameters for fire:
    dmax delaystep dtgrow dtshrink alpha0 alphashrink tmax tmin    integrator halfstepback
     0.1        20    1.1      0.5   0.25        0.99   10 0.02 eulerimplicit          yes
Step Temp E_pair E_mol TotEng Press
759            0    182.45732    1948.3644    2130.8217     593.6778
Loop time of 0.903319 on 1 procs for 4028 steps with 180 atoms

Minimization stats:
  Stopping criterion = energy tolerance
  Energy initial, next-to-last, final =
  Force two-norm initial, final = 35.2566 7.47689e-05
  Force max component initial, final = 6.32615 2.19842e-05
  Final line search alpha, max atom move = 0 0
  Iterations, force evaluations = 4028 4028

variable        AtomMinStep equal 759
variable        temppe     equal $(pe)
variable        temppe     equal 2061.8965928026741494
variable        min_E      equal abs(50000-2061.89659280267)
variable        prev_E     equal 2061.89659280267
next            iter
jump            SELF loop_min
min_style       cg
fix             1 all box/relax aniso 0.0 vmax 0.01
minimize        1.0e-15 1.0e-15 10000 100000
Step Temp E_pair E_mol TotEng Press Volume
4787 1.0558254e-10    166.88425    1895.0123    2061.8966    1118.6879    1739.1004
Loop time of 0.0156114 on 1 procs for 2 steps with 180 atoms

Minimization stats:
  Stopping criterion = linesearch alpha is zero
  Energy initial, next-to-last, final =
  Force two-norm initial, final = 266.411 51.9074
  Force max component initial, final = 182.994 40.4352
  Final line search alpha, max atom move = 3.32107e-12 1.34288e-10
  Iterations, force evaluations = 2 55

unfix           1
min_style       fire
variable        tempstp    equal $(step)
variable        tempstp    equal 4789
variable        CellMinStep equal 4789
minimize        1.0e-15 1.0e-15 10000 100000
  Parameters for fire:
    dmax delaystep dtgrow dtshrink alpha0 alphashrink tmax tmin    integrator halfstepback
     0.1        20    1.1      0.5   0.25        0.99   10 0.02 eulerimplicit          yes
Step Temp E_pair E_mol TotEng Press
4789            0    166.09409     1895.459    2061.5531     193.0106
Loop time of 0.776918 on 1 procs for 3483 steps with 180 atoms

Minimization stats:
  Stopping criterion = energy tolerance
  Energy initial, next-to-last, final =
  Force two-norm initial, final = 18.3029 3.62561e-05
  Force max component initial, final = 2.91222 6.60557e-06
  Final line search alpha, max atom move = 0 0
  Iterations, force evaluations = 3483 3483

variable        AtomMinStep equal 4789
variable        temppe     equal $(pe)
variable        temppe     equal 2061.2554958463229013
variable        min_E      equal abs(2061.89659280267-2061.25549584632)
variable        prev_E     equal 2061.25549584632
next            iter
jump            SELF loop_min
min_style       cg
fix             1 all box/relax aniso 0.0 vmax 0.01
minimize        1.0e-15 1.0e-15 10000 100000
Step Temp E_pair E_mol TotEng Press Volume
8272 9.3936313e-11    166.53699    1894.7185    2061.2555    383.29946    1740.5516
Loop time of 0.0160101 on 1 procs for 3 steps with 180 atoms

Minimization stats:
  Stopping criterion = linesearch alpha is zero
  Energy initial, next-to-last, final =
  Force two-norm initial, final = 221.756 18.8054
  Force max component initial, final = 169.749 7.1606
  Final line search alpha, max atom move = 2.57317e-11 1.84255e-10
  Iterations, force evaluations = 3 57

unfix           1
min_style       fire
variable        tempstp    equal $(step)
variable        tempstp    equal 8275
variable        CellMinStep equal 8275
minimize        1.0e-15 1.0e-15 10000 100000
  Parameters for fire:
    dmax delaystep dtgrow dtshrink alpha0 alphashrink tmax tmin    integrator halfstepback
     0.1        20    1.1      0.5   0.25        0.99   10 0.02 eulerimplicit          yes
Step Temp E_pair E_mol TotEng Press
8275            0    165.83416    1895.1857    2061.0199   -212.42351
Loop time of 0.749591 on 1 procs for 3351 steps with 180 atoms

Minimization stats:
  Stopping criterion = energy tolerance
  Energy initial, next-to-last, final =
  Force two-norm initial, final = 16.0714 4.56462e-05
  Force max component initial, final = 2.75958 8.28799e-06
  Final line search alpha, max atom move = 0 0
  Iterations, force evaluations = 3351 3351

variable        AtomMinStep equal 8275
variable        temppe     equal $(pe)
variable        temppe     equal 2060.8351957351860619
variable        min_E      equal abs(2061.25549584632-2060.83519573519)
variable        prev_E     equal 2060.83519573519
next            iter
jump            SELF loop_min
min_style       cg
fix             1 all box/relax aniso 0.0 vmax 0.01
minimize        1.0e-15 1.0e-15 10000 100000
Step Temp E_pair E_mol TotEng Press Volume
11626 1.3225382e-10    166.20734    1894.6279    2060.8352    -292.0206    1741.8606
Loop time of 0.0158193 on 1 procs for 5 steps with 180 atoms

Minimization stats:
  Stopping criterion = linesearch alpha is zero
  Energy initial, next-to-last, final =
  Force two-norm initial, final = 188.923 24.9101
  Force max component initial, final = 160.665 14.2123
  Final line search alpha, max atom move = 1.13158e-11 1.60824e-10
  Iterations, force evaluations = 5 61

unfix           1
min_style       fire
variable        tempstp    equal $(step)
variable        tempstp    equal 11631
variable        CellMinStep equal 11631
minimize        1.0e-15 1.0e-15 10000 100000
  Parameters for fire:
    dmax delaystep dtgrow dtshrink alpha0 alphashrink tmax tmin    integrator halfstepback
     0.1        20    1.1      0.5   0.25        0.99   10 0.02 eulerimplicit          yes
Step Temp E_pair E_mol TotEng Press
11631            0    167.38926    1893.1277    2060.5169    6.2609612
Loop time of 0.738099 on 1 procs for 3327 steps with 180 atoms

Minimization stats:
  Stopping criterion = energy tolerance
  Energy initial, next-to-last, final =
  Force two-norm initial, final = 16.2764 4.09041e-05
  Force max component initial, final = 2.98274 7.56283e-06
  Final line search alpha, max atom move = 0 0
  Iterations, force evaluations = 3327 3327

variable        AtomMinStep equal 11631
variable        temppe     equal $(pe)
variable        temppe     equal 2060.3902557777405491
variable        min_E      equal abs(2060.83519573519-2060.39025577774)
variable        prev_E     equal 2060.39025577774
next            iter
jump            SELF loop_min
min_style       cg
fix             1 all box/relax aniso 0.0 vmax 0.01
minimize        1.0e-15 1.0e-15 10000 100000
Step Temp E_pair E_mol TotEng Press Volume
14958 1.1987121e-10     166.6529    1893.7374    2060.3903   -497.97413    1741.8874
Loop time of 0.0150232 on 1 procs for 3 steps with 180 atoms

Minimization stats:
  Stopping criterion = linesearch alpha is zero
  Energy initial, next-to-last, final =
  Force two-norm initial, final = 151.541 16.2008
  Force max component initial, final = 134.947 9.83547
  Final line search alpha, max atom move = 3.12182e-11 3.07046e-10
  Iterations, force evaluations = 3 55

unfix           1
min_style       fire
variable        tempstp    equal $(step)
variable        tempstp    equal 14961
variable        CellMinStep equal 14961
minimize        1.0e-15 1.0e-15 10000 100000
  Parameters for fire:
    dmax delaystep dtgrow dtshrink alpha0 alphashrink tmax tmin    integrator halfstepback
     0.1        20    1.1      0.5   0.25        0.99   10 0.02 eulerimplicit          yes
Step Temp E_pair E_mol TotEng Press
14961            0     166.8891    1893.4055    2060.2946   -243.49677
Loop time of 0.732585 on 1 procs for 3291 steps with 180 atoms

Minimization stats:
  Stopping criterion = energy tolerance
  Energy initial, next-to-last, final =
  Force two-norm initial, final = 11.2201 3.23323e-05
  Force max component initial, final = 2.03089 6.20965e-06
  Final line search alpha, max atom move = 0 0
  Iterations, force evaluations = 3291 3291

variable        AtomMinStep equal 14961
variable        temppe     equal $(pe)
variable        temppe     equal 2060.1959488900970427
variable        min_E      equal abs(2060.39025577774-2060.1959488901)
variable        prev_E     equal 2060.1959488901
next            iter
jump            SELF loop_min
min_style       cg
fix             1 all box/relax aniso 0.0 vmax 0.01
minimize        1.0e-15 1.0e-15 10000 100000
Step Temp E_pair E_mol TotEng Press Volume
18252 7.9639958e-11    166.79727    1893.3987    2060.1959   -700.20012    1742.1146
Loop time of 0.0182728 on 1 procs for 8 steps with 180 atoms

Minimization stats:
  Stopping criterion = linesearch alpha is zero
  Energy initial, next-to-last, final =
  Force two-norm initial, final = 132.099 29.8924
  Force max component initial, final = 122.657 27.2593
  Final line search alpha, max atom move = 7.80274e-12 2.12697e-10
  Iterations, force evaluations = 8 67

unfix           1
min_style       fire
variable        tempstp    equal $(step)
variable        tempstp    equal 18260
variable        CellMinStep equal 18260
minimize        1.0e-15 1.0e-15 10000 100000
  Parameters for fire:
    dmax delaystep dtgrow dtshrink alpha0 alphashrink tmax tmin    integrator halfstepback
     0.1        20    1.1      0.5   0.25        0.99   10 0.02 eulerimplicit          yes
Step Temp E_pair E_mol TotEng Press
18260            0    168.44801    1891.4311    2059.8791   -331.43763
Loop time of 0.907406 on 1 procs for 4074 steps with 180 atoms

Minimization stats:
  Stopping criterion = energy tolerance
  Energy initial, next-to-last, final =
  Force two-norm initial, final = 9.5092 3.95114e-05
  Force max component initial, final = 1.31272 7.9271e-06
  Final line search alpha, max atom move = 0 0
  Iterations, force evaluations = 4074 4074

variable        AtomMinStep equal 18260
variable        temppe     equal $(pe)
variable        temppe     equal 2059.836636873471889
variable        min_E      equal abs(2060.1959488901-2059.83663687347)
variable        prev_E     equal 2059.83663687347
next            iter
jump            SELF loop_min
min_style       cg
fix             1 all box/relax aniso 0.0 vmax 0.01
minimize        1.0e-15 1.0e-15 10000 100000
Step Temp E_pair E_mol TotEng Press Volume
22334 1.0748272e-10    167.46653    1892.3701    2059.8366   -692.80922    1741.6366
Loop time of 0.0141063 on 1 procs for 2 steps with 180 atoms

Minimization stats:
  Stopping criterion = linesearch alpha is zero
  Energy initial, next-to-last, final =
  Force two-norm initial, final = 100.046 24.5493
  Force max component initial, final = 95.3258 22.5735
  Final line search alpha, max atom move = 1.24972e-11 2.82106e-10
  Iterations, force evaluations = 2 53

unfix           1
min_style       fire
variable        tempstp    equal $(step)
variable        tempstp    equal 22336
variable        CellMinStep equal 22336
minimize        1.0e-15 1.0e-15 10000 100000
  Parameters for fire:
    dmax delaystep dtgrow dtshrink alpha0 alphashrink tmax tmin    integrator halfstepback
     0.1        20    1.1      0.5   0.25        0.99   10 0.02 eulerimplicit          yes
Step Temp E_pair E_mol TotEng Press
22336            0    168.54647    1891.1475    2059.6939    410.01768
Loop time of 0.727144 on 1 procs for 3247 steps with 180 atoms

Minimization stats:
  Stopping criterion = energy tolerance
  Energy initial, next-to-last, final =
  Force two-norm initial, final = 7.26275 3.70309e-05
  Force max component initial, final = 1.4621 7.63495e-06
  Final line search alpha, max atom move = 0 0
  Iterations, force evaluations = 3247 3247

variable        AtomMinStep equal 22336
variable        temppe     equal $(pe)
variable        temppe     equal 2059.6526284265405593
variable        min_E      equal abs(2059.83663687347-2059.65262842654)
variable        prev_E     equal 2059.65262842654
next            iter
jump            SELF loop_min
min_style       cg
fix             1 all box/relax aniso 0.0 vmax 0.01
minimize        1.0e-15 1.0e-15 10000 100000
Step Temp E_pair E_mol TotEng Press Volume
25583 9.9070635e-11    167.97996    1891.6727    2059.6526   -433.82442    1740.7825
Loop time of 0.0145891 on 1 procs for 1 steps with 180 atoms

Minimization stats:
  Stopping criterion = linesearch alpha is zero
  Energy initial, next-to-last, final =
  Force two-norm initial, final = 86.9817 86.9817
  Force max component initial, final = 79.9759 79.9759
  Final line search alpha, max atom move = 9.31603e-13 7.45058e-11
  Iterations, force evaluations = 1 55

unfix           1
min_style       fire
variable        tempstp    equal $(step)
variable        tempstp    equal 25584
variable        CellMinStep equal 25584
minimize        1.0e-15 1.0e-15 10000 100000
  Parameters for fire:
    dmax delaystep dtgrow dtshrink alpha0 alphashrink tmax tmin    integrator halfstepback
     0.1        20    1.1      0.5   0.25        0.99   10 0.02 eulerimplicit          yes
Step Temp E_pair E_mol TotEng Press
25584            0    167.97996    1891.6727    2059.6526   -433.82442
Loop time of 0.0133803 on 1 procs for 56 steps with 180 atoms

Minimization stats:
  Stopping criterion = energy tolerance
  Energy initial, next-to-last, final =
  Force two-norm initial, final = 3.70309e-05 3.38173e-05
  Force max component initial, final = 7.63495e-06 6.95186e-06
  Final line search alpha, max atom move = 0 0
  Iterations, force evaluations = 56 56

variable        AtomMinStep equal 25584
variable        temppe     equal $(pe)
variable        temppe     equal 2059.6526284264009519
variable        min_E      equal abs(2059.65262842654-2059.6526284264)
jump SELF break_min
undump          NiPyC2_relax_sc211_ortho_functionalized_CH2-CH2-CH3_xyzmov

# Dump last snapshot for restart
variable curr_lx equal lx
variable curr_ly equal ly
variable curr_lz equal lz
change_box all x final 0 16.1050193750378 y final 0 10.8375197529937 z final 0 9.9736326554456
  triclinic box = (0 0.84294 0.150323) to (16.105 11.6805 10.124) with tilt (0 -0.220934 0)
  triclinic box = (0 0 0.150323) to (16.105 10.8375 10.124) with tilt (0 -0.220934 0)
  triclinic box = (0 0 0) to (16.105 10.8375 9.97363) with tilt (0 -0.220934 0)

reset_timestep 0
dump            NiPyC2_relax_sc211_ortho_functionalized_CH2-CH2-CH3_restart all atom 1 NiPyC2_relax_sc211_ortho_functionalized_CH2-CH2-CH3_restart.lammpstrj
dump_modify     NiPyC2_relax_sc211_ortho_functionalized_CH2-CH2-CH3_restart scale no sort id
run 0
Step Temp E_pair E_mol TotEng Press
0 8.4741737e-11    167.97997    1891.6727    2059.6526   -433.82141
Loop time of 7.67002e-07 on 1 procs for 0 steps with 180 atoms

undump          NiPyC2_relax_sc211_ortho_functionalized_CH2-CH2-CH3_restart
units           real
atom_style      full
boundary        p p p

pair_style      lj/cut 5.000
bond_style      harmonic
angle_style     hybrid cosine/periodic fourier
dihedral_style  harmonic
improper_style  fourier

pair_modify     tail yes mix arithmetic
dielectric      1.0
special_bonds   lj/coul 0.0 0.0 1.0
box tilt        large
read_data       data.NiPyC2_relax_sc211_ortho_functionalized_CH2-CH2-CH3
  triclinic box = (0 0 0) to (12.5056 12.5234 10.2743) with tilt (0 -0.227594 0)
  reading atoms ...
  180 atoms
  scanning bonds ...
  scanning angles ...
  scanning dihedrals ...
  scanning impropers ...
  reading bonds ...
  200 bonds
  reading angles ...
  388 angles
  reading dihedrals ...
  448 dihedrals
  reading impropers ...
  168 impropers

#### Atom Groupings ####
group           fram     id   1:180
180 atoms in group fram
#### END Atom Groupings ####

dump            NiPyC2_relax_sc211_ortho_functionalized_CH2-CH2-CH3_xyzmov all xyz 20000 NiPyC2_relax_sc211_ortho_functionalized_CH2-CH2-CH3_mov.xyz
dump_modify     NiPyC2_relax_sc211_ortho_functionalized_CH2-CH2-CH3_xyzmov element Ni O N C H C
min_style       cg
print           "MinStep,CellMinStep,AtomMinStep,FinalStep,Energy,EDiff,vol,lx,ly,lz,xy,xz,yz" file NiPyC2_relax_sc211_ortho_functionalized_CH2-CH2-CH3.min.csv screen no
variable        min_eval   equal 1.00e-06
variable        prev_E     equal 50000.00
variable        iter       loop 100000
label           loop_min
min_style       cg
variable        tempstp    equal $(step)
variable        tempstp    equal 0
variable        CellMinStep equal 0
minimize        1.0e-15 1.0e-15 10000 100000
  update every 1 steps, delay 0 steps, check yes
Step Temp E_pair E_mol TotEng Press
0            0 2.367986e+08    2234.6319 2.3680083e+08 4.0366012e+10
Loop time of 0.226351 on 1 procs for 393 steps with 180 atoms

Minimization stats:
  Stopping criterion = linesearch alpha is zero
  Energy initial, next-to-last, final =
  Force two-norm initial, final = 2.98178e+09 10.0086
  Force max component initial, final = 1.46647e+09 1.89978
  Final line search alpha, max atom move = 7.76647e-11 1.47546e-10
  Iterations, force evaluations = 393 757

variable        AtomMinStep equal 0
variable        temppe     equal $(pe)
variable        temppe     equal 2594.8171599943334513
variable        min_E      equal abs(50000-2594.81715999433)
variable        prev_E     equal 2594.81715999433
next            iter
jump            SELF loop_min
min_style       cg
variable        tempstp    equal $(step)
variable        tempstp    equal 393
variable        CellMinStep equal 393
minimize        1.0e-15 1.0e-15 10000 100000
Step Temp E_pair E_mol TotEng Press
393            0    302.82376    2291.9934    2594.8172   -15279.193
Loop time of 0.0211748 on 1 procs for 11 steps with 180 atoms

Minimization stats:
  Stopping criterion = linesearch alpha is zero
  Energy initial, next-to-last, final =
  Force two-norm initial, final = 10.0086 9.95337
  Force max component initial, final = 1.89978 1.86214
  Final line search alpha, max atom move = 1.10181e-10 2.05173e-10
  Iterations, force evaluations = 11 75

variable        AtomMinStep equal 393
variable        temppe     equal $(pe)
variable        temppe     equal 2594.1613415888400596
variable        min_E      equal abs(2594.81715999433-2594.16134158884)
variable        prev_E     equal 2594.16134158884
next            iter
jump            SELF loop_min
min_style       cg
variable        tempstp    equal $(step)
variable        tempstp    equal 404
variable        CellMinStep equal 404
minimize        1.0e-15 1.0e-15 10000 100000
Step Temp E_pair E_mol TotEng Press
404            0    301.05823    2293.1031    2594.1613   -15892.678
Loop time of 0.0156069 on 1 procs for 2 steps with 180 atoms

Minimization stats:
  Stopping criterion = linesearch alpha is zero
  Energy initial, next-to-last, final =
  Force two-norm initial, final = 9.95337 7.02528
  Force max component initial, final = 1.86214 1.56828
  Final line search alpha, max atom move = 1.57898e-10 2.47627e-10
  Iterations, force evaluations = 2 61

variable        AtomMinStep equal 404
variable        temppe     equal $(pe)
variable        temppe     equal 2594.1465715138233463
variable        min_E      equal abs(2594.16134158884-2594.14657151382)
variable        prev_E     equal 2594.14657151382
next            iter
jump            SELF loop_min
min_style       cg
variable        tempstp    equal $(step)
variable        tempstp    equal 406
variable        CellMinStep equal 406
minimize        1.0e-15 1.0e-15 10000 100000
Step Temp E_pair E_mol TotEng Press
406            0    301.14904    2292.9975    2594.1466   -15901.067
Loop time of 0.0149479 on 1 procs for 1 steps with 180 atoms

Minimization stats:
  Stopping criterion = linesearch alpha is zero
  Energy initial, next-to-last, final =
  Force two-norm initial, final = 7.02528 7.02528
  Force max component initial, final = 1.56828 1.56828
  Final line search alpha, max atom move = 2.3754e-10 3.72529e-10
  Iterations, force evaluations = 1 56

variable        AtomMinStep equal 406
variable        temppe     equal $(pe)
variable        temppe     equal 2594.1465715138238011
variable        min_E      equal abs(2594.14657151382-2594.14657151382)
jump SELF break_min
undump          NiPyC2_relax_sc211_ortho_functionalized_CH2-CH2-CH3_xyzmov

# Dump last snapshot for restart
variable curr_lx equal lx
variable curr_ly equal ly
variable curr_lz equal lz
change_box all x final 0 12.5056 y final 0 12.5234 z final 0 10.274279
  triclinic box = (0 0 0) to (12.5056 12.5234 10.2743) with tilt (0 -0.227594 0)
  triclinic box = (0 0 0) to (12.5056 12.5234 10.2743) with tilt (0 -0.227594 0)
  triclinic box = (0 0 0) to (12.5056 12.5234 10.2743) with tilt (0 -0.227594 0)

reset_timestep 0
dump            NiPyC2_relax_sc211_ortho_functionalized_CH2-CH2-CH3_restart all atom 1 NiPyC2_relax_sc211_ortho_functionalized_CH2-CH2-CH3_restart.lammpstrj
dump_modify     NiPyC2_relax_sc211_ortho_functionalized_CH2-CH2-CH3_restart scale no sort id
run 0
Step Temp E_pair E_mol TotEng Press
0            0    301.14904    2292.9975    2594.1466   -15901.067
Loop time of 1.06799e-06 on 1 procs for 0 steps with 180 atoms

undump          NiPyC2_relax_sc211_ortho_functionalized_CH2-CH2-CH3_restart
