data_NiPyC2_relax_NiPyC2_relax_aligned_C-3CH3_NiPyC2_relax_aligned_C-3CH3_NiPyC2_relax_aligned_C-3CH3_NiPyC2_relax_aligned_C-3CH3_PM
_symmetry_space_group_name_H-M	'P1'
_cell_length_a	6.252800
_cell_length_b	12.523400
_cell_length_c	10.276800
_cell_angle_alpha	90.000000
_cell_angle_beta	91.269000
_cell_angle_gamma	90.000000
_symmetry_Int_Tables_number 1

loop_
_symmetry_equiv_pos_as_xyz
'x,y,z'

loop_
_atom_site_label
_atom_site_type_symbol
_atom_site_fract_x
_atom_site_fract_y
_atom_site_fract_z
Ni1	Ni	0.494004	0.751486	0.836326
Ni2	Ni	0.999945	0.247999	0.339178
O1	O	0.245557	0.347689	0.382873
O2	O	0.742416	0.650977	0.881292
O3	O	0.755261	0.147507	0.377178
O4	O	0.250196	0.852352	0.876261
O5	O	0.946138	0.356160	0.482994
O6	O	0.442275	0.641415	0.979877
O7	O	0.057679	0.135158	0.481078
O8	O	0.553372	0.862758	0.979399
N1	N	0.616875	0.851253	0.704828
N2	N	0.121459	0.148857	0.206052
N3	N	0.373085	0.650310	0.705838
N4	N	0.877620	0.350928	0.208041
C1	C	0.576425	0.970050	0.521984
C2	C	0.076758	0.031106	0.022308
C3	C	0.781269	0.011770	0.546492
C4	C	0.280489	0.987744	0.046146
C5	C	0.903830	0.970202	0.650371
C6	C	0.405041	0.028353	0.149893
H1	H	0.064125	0.998805	0.673520
H2	H	0.564681	0.998665	0.172602
C7	C	0.416363	0.529704	0.526384
C8	C	0.917091	0.471409	0.027904
C9	C	0.490274	0.613331	0.606435
C10	C	0.993638	0.388677	0.108617
H3	H	0.645282	0.650506	0.592635
H4	H	0.149937	0.352851	0.095028
C11	C	0.498952	0.889206	0.603203
C12	C	0.002139	0.112232	0.104247
H5	H	0.340308	0.855123	0.588560
H6	H	0.844645	0.147732	0.089886
C13	C	0.815954	0.889383	0.727552
C14	C	0.319869	0.109547	0.227812
H7	H	0.906740	0.855173	0.808761
H8	H	0.412479	0.143103	0.308797
C15	C	0.177724	0.608983	0.727352
C16	C	0.681780	0.391633	0.229394
H9	H	0.087458	0.642944	0.806608
H10	H	0.592757	0.357526	0.309051
C17	C	0.093850	0.525079	0.651312
C18	C	0.595316	0.474711	0.152754
H11	H	0.937343	0.493231	0.673502
H12	H	0.437905	0.505201	0.175264
C19	C	0.216328	0.484270	0.550116
C20	C	0.715665	0.515656	0.050638
C21	C	0.866619	0.099319	0.466621
C22	C	0.363035	0.899720	0.965672
C23	C	0.134755	0.394474	0.470676
C24	C	0.632086	0.604172	0.969107
C25	C	0.418632	0.007758	0.405972
C26	C	0.199831	0.947845	0.401151
H13	H	0.221481	0.860627	0.385938
H14	H	0.096586	0.976985	0.319032
H15	H	0.108784	0.960925	0.491515
C27	C	0.356239	0.126700	0.423723
H16	H	0.269346	0.136448	0.516203
H17	H	0.248371	0.153506	0.342701
H18	H	0.487490	0.184331	0.430003
C28	C	0.517884	0.982844	0.272298
H19	H	0.540435	0.895189	0.262250
H20	H	0.675174	0.017301	0.254185
H21	H	0.409794	0.009848	0.191483
C29	C	0.917238	0.995073	0.906382
C30	C	0.700279	0.056645	0.902381
H22	H	0.609324	0.043885	0.992848
H23	H	0.595734	0.028621	0.820278
H24	H	0.724504	0.143751	0.887683
C31	C	0.016523	0.019779	0.772661
H25	H	0.041691	0.107294	0.763127
H26	H	0.907205	0.993922	0.691886
H27	H	0.172637	0.984215	0.754013
C32	C	0.851328	0.876543	0.923500
H28	H	0.764641	0.867076	0.016095
H29	H	0.980830	0.817906	0.929150
H30	H	0.742236	0.850882	0.842517
C33	C	0.571789	0.493441	0.412847
C34	C	0.785175	0.557795	0.408652
H31	H	0.755490	0.644216	0.391124
H32	H	0.887047	0.529495	0.328215
H33	H	0.881405	0.548127	0.500199
C35	C	0.644982	0.376226	0.434067
H34	H	0.736876	0.369834	0.527610
H35	H	0.751328	0.350372	0.354715
H36	H	0.518963	0.316010	0.440496
C36	C	0.464379	0.514044	0.277625
H37	H	0.433993	0.600967	0.265243
H38	H	0.309268	0.476029	0.258853
H39	H	0.570973	0.488001	0.198487
C37	C	0.072231	0.508263	0.914240
C38	C	0.287534	0.445459	0.910952
H40	H	0.383009	0.456296	0.002590
H41	H	0.388974	0.474092	0.830483
H42	H	0.260499	0.358743	0.894065
C39	C	0.966128	0.486188	0.778998
H43	H	0.938380	0.398991	0.767257
H44	H	0.072349	0.512606	0.699855
H45	H	0.809993	0.522967	0.759639
C40	C	0.141836	0.626107	0.934655
H46	H	0.233060	0.633646	0.028305
H47	H	0.014007	0.685425	0.940370
H48	H	0.247817	0.652333	0.855297

loop_
_geom_bond_atom_site_label_1
_geom_bond_atom_site_label_2
_geom_bond_distance
Ni1	O2	0.27172
Ni1	O4	0.26685
Ni1	O6	0.18814
Ni1	O8	0.19072
Ni1	N1	0.20577
Ni1	N3	0.20466
Ni2	O1	0.26865
Ni2	O3	0.26723
Ni2	O5	0.18782
Ni2	O7	0.19027
Ni2	N2	0.20571
Ni2	N4	0.20677
O1	C23	0.14891
O2	C24	0.14858
O3	C21	0.15074
O4	C22	0.15156
O5	C23	0.19286
O6	C24	0.19373
O7	C21	0.19493
O8	C22	0.19438
N1	C11	0.16023
N1	C13	0.20397
N2	C12	0.16107
N2	C14	0.20343
N3	C9	0.15806
N3	C15	0.20084
N4	C10	0.15739
N4	C16	0.20116
C1	C3	0.21048
C1	C11	0.13833
C1	C25	0.19945
C2	C4	0.20965
C2	C12	0.13734
C2	C29	0.20046
C3	C5	0.16595
C3	C21	0.14604
C4	C6	0.16711
C4	C22	0.14505
C5	H1	0.16446
C5	C13	0.14216
C6	H2	0.16396
C6	C14	0.14113
C7	C9	0.13735
C7	C19	0.20650
C7	C33	0.19586
C8	C10	0.13863
C8	C20	0.20748
C8	C37	0.19582
C9	H3	0.16000
C10	H4	0.16093
C11	H5	0.16292
C12	H6	0.16208
C13	H7	0.12652
C14	H8	0.12752
C15	H9	0.12483
C15	C17	0.14091
C16	H10	0.12423
C16	C18	0.14231
C17	H11	0.16125
C17	C19	0.16403
C18	H12	0.16191
C18	C20	0.16306
C19	C23	0.14501
C20	C24	0.14652
C25	C26	0.22691
C25	C27	0.13548
C25	C28	0.16835
C26	H13	0.09114
C26	H14	0.13510
C26	H15	0.12894
C27	H16	0.12727
C27	H17	0.13755
C27	H18	0.14348
C28	H19	0.09107
C28	H20	0.16204
C28	H21	0.13764
C29	C30	0.22556
C29	C31	0.16837
C29	C32	0.13670
C30	H22	0.12892
C30	H23	0.13585
C30	H24	0.09160
C31	H25	0.09156
C31	H26	0.13836
C31	H27	0.16120
C32	H28	0.12719
C32	H29	0.14227
C32	H30	0.13827
C33	C34	0.22292
C33	C35	0.13981
C33	C36	0.17391
C34	H31	0.09304
C34	H32	0.13285
C34	H33	0.13317
C35	H34	0.13128
C35	H35	0.13518
C35	H36	0.13981
C36	H37	0.09291
C36	H38	0.16080
C36	H39	0.13529
C37	C38	0.22430
C38	H40	0.13278
