units           real
atom_style      full
boundary        p p p

pair_style      lj/cut 5.000
bond_style      harmonic
angle_style     hybrid cosine/periodic fourier
dihedral_style  harmonic
improper_style  fourier

pair_modify     tail yes mix arithmetic
special_bonds   lj/coul 0.0 0.0 1.0
dielectric      1.0
box tilt        large
read_data       data.NiPyC2_relax_sc211_meta_functionalized_CH2-CH2-CH3
  triclinic box = (0 0 0) to (12.5056 12.5234 10.2743) with tilt (0 -0.227594 0)
  reading atoms ...
  180 atoms
  scanning bonds ...
  scanning angles ...
  scanning dihedrals ...
  scanning impropers ...
  reading bonds ...
  200 bonds
  reading angles ...
  388 angles
  reading dihedrals ...
  448 dihedrals
  reading impropers ...
  168 impropers

#### Atom Groupings ####
group           fram     id   1:180
180 atoms in group fram
#### END Atom Groupings ####

dump            NiPyC2_relax_sc211_meta_functionalized_CH2-CH2-CH3_xyzmov all xyz 20000 NiPyC2_relax_sc211_meta_functionalized_CH2-CH2-CH3_mov.xyz
dump_modify     NiPyC2_relax_sc211_meta_functionalized_CH2-CH2-CH3_xyzmov element Ni O N C H C
min_style       cg
print           "MinStep,CellMinStep,AtomMinStep,FinalStep,Energy,EDiff" file NiPyC2_relax_sc211_meta_functionalized_CH2-CH2-CH3.min.csv screen no
variable        min_eval   equal 1.00e-06
variable        prev_E     equal 50000.00
variable        iter       loop 100000
label           loop_min
min_style       cg
fix             1 all box/relax aniso 0.0 vmax 0.01
minimize        1.0e-15 1.0e-15 10000 100000
  update every 1 steps, delay 0 steps, check yes
Step Temp E_pair E_mol TotEng Press Volume
0            0 1.6852807e+10     2228.566 1.6852809e+10 2.8726302e+12    1609.0819
Loop time of 0.249805 on 1 procs for 596 steps with 180 atoms

Minimization stats:
  Stopping criterion = linesearch alpha is zero
  Energy initial, next-to-last, final =
  Force two-norm initial, final = 5.06325e+11 67.9043
  Force max component initial, final = 2.12065e+11 45.2056
  Final line search alpha, max atom move = 1.59054e-12 7.19011e-11
  Iterations, force evaluations = 596 987

unfix           1
min_style       fire
variable        tempstp    equal $(step)
variable        tempstp    equal 596
variable        CellMinStep equal 596
minimize        1.0e-15 1.0e-15 10000 100000
  Parameters for fire:
    dmax delaystep dtgrow dtshrink alpha0 alphashrink tmax tmin    integrator halfstepback
     0.1        20    1.1      0.5   0.25        0.99   10 0.02 eulerimplicit          yes
Step Temp E_pair E_mol TotEng Press
596            0    235.78421    1888.7673    2124.5516    892.04302
Loop time of 1.57945 on 1 procs for 7164 steps with 180 atoms

Minimization stats:
  Stopping criterion = energy tolerance
  Energy initial, next-to-last, final =
  Force two-norm initial, final = 47.0456 3.34469e-05
  Force max component initial, final = 9.37625 9.47794e-06
  Final line search alpha, max atom move = 0 0
  Iterations, force evaluations = 7164 7164

variable        AtomMinStep equal 596
variable        temppe     equal $(pe)
variable        temppe     equal 1939.7414989127657918
variable        min_E      equal abs(50000-1939.74149891277)
variable        prev_E     equal 1939.74149891277
next            iter
jump            SELF loop_min
min_style       cg
fix             1 all box/relax aniso 0.0 vmax 0.01
minimize        1.0e-15 1.0e-15 10000 100000
Step Temp E_pair E_mol TotEng Press Volume
7760 7.973428e-11    109.51627    1830.2252    1939.7415   -31985.889    1731.4072
Loop time of 0.0255467 on 1 procs for 22 steps with 180 atoms

Minimization stats:
  Stopping criterion = linesearch alpha is zero
  Energy initial, next-to-last, final =
  Force two-norm initial, final = 1415.92 47.7288
  Force max component initial, final = 928.518 14.9563
  Final line search alpha, max atom move = 3.29972e-12 4.93514e-11
  Iterations, force evaluations = 22 99

unfix           1
min_style       fire
variable        tempstp    equal $(step)
variable        tempstp    equal 7782
variable        CellMinStep equal 7782
minimize        1.0e-15 1.0e-15 10000 100000
  Parameters for fire:
    dmax delaystep dtgrow dtshrink alpha0 alphashrink tmax tmin    integrator halfstepback
     0.1        20    1.1      0.5   0.25        0.99   10 0.02 eulerimplicit          yes
Step Temp E_pair E_mol TotEng Press
7782            0    159.60847    1764.8053    1924.4137    384.07096
Loop time of 1.11905 on 1 procs for 4951 steps with 180 atoms

Minimization stats:
  Stopping criterion = energy tolerance
  Energy initial, next-to-last, final =
  Force two-norm initial, final = 44.3096 3.02739e-05
  Force max component initial, final = 9.6162 1.03376e-05
  Final line search alpha, max atom move = 0 0
  Iterations, force evaluations = 4951 4951

variable        AtomMinStep equal 7782
variable        temppe     equal $(pe)
variable        temppe     equal 1920.2697364293273949
variable        min_E      equal abs(1939.74149891277-1920.26973642933)
variable        prev_E     equal 1920.26973642933
next            iter
jump            SELF loop_min
min_style       cg
fix             1 all box/relax aniso 0.0 vmax 0.01
minimize        1.0e-15 1.0e-15 10000 100000
Step Temp E_pair E_mol TotEng Press Volume
12733 6.2782514e-11    139.42686    1780.8429    1920.2697   -5769.5217    1666.5834
Loop time of 0.0162606 on 1 procs for 3 steps with 180 atoms

Minimization stats:
  Stopping criterion = linesearch alpha is zero
  Energy initial, next-to-last, final =
  Force two-norm initial, final = 273.955 17.9119
  Force max component initial, final = 207.693 4.8624
  Final line search alpha, max atom move = 3.3955e-11 1.65103e-10
  Iterations, force evaluations = 3 57

unfix           1
min_style       fire
variable        tempstp    equal $(step)
variable        tempstp    equal 12736
variable        CellMinStep equal 12736
minimize        1.0e-15 1.0e-15 10000 100000
  Parameters for fire:
    dmax delaystep dtgrow dtshrink alpha0 alphashrink tmax tmin    integrator halfstepback
     0.1        20    1.1      0.5   0.25        0.99   10 0.02 eulerimplicit          yes
Step Temp E_pair E_mol TotEng Press
12736            0    145.18751    1774.8273    1920.0148   -113.09391
Loop time of 0.514073 on 1 procs for 2284 steps with 180 atoms

Minimization stats:
  Stopping criterion = energy tolerance
  Energy initial, next-to-last, final =
  Force two-norm initial, final = 16.9866 2.9209e-05
  Force max component initial, final = 3.07807 9.73616e-06
  Final line search alpha, max atom move = 0 0
  Iterations, force evaluations = 2284 2284

variable        AtomMinStep equal 12736
variable        temppe     equal $(pe)
variable        temppe     equal 1919.7825509985184453
variable        min_E      equal abs(1920.26973642933-1919.78255099852)
variable        prev_E     equal 1919.78255099852
next            iter
jump            SELF loop_min
min_style       cg
fix             1 all box/relax aniso 0.0 vmax 0.01
minimize        1.0e-15 1.0e-15 10000 100000
Step Temp E_pair E_mol TotEng Press Volume
15020 6.8618336e-11    142.26216    1777.5204    1919.7826   -3545.4585    1660.8377
Loop time of 0.0159344 on 1 procs for 2 steps with 180 atoms

Minimization stats:
  Stopping criterion = linesearch alpha is zero
  Energy initial, next-to-last, final =
  Force two-norm initial, final = 194.355 61.5581
  Force max component initial, final = 142.677 36.692
  Final line search alpha, max atom move = 1.64299e-12 6.02844e-11
  Iterations, force evaluations = 2 57

unfix           1
min_style       fire
variable        tempstp    equal $(step)
variable        tempstp    equal 15022
variable        CellMinStep equal 15022
minimize        1.0e-15 1.0e-15 10000 100000
  Parameters for fire:
    dmax delaystep dtgrow dtshrink alpha0 alphashrink tmax tmin    integrator halfstepback
     0.1        20    1.1      0.5   0.25        0.99   10 0.02 eulerimplicit          yes
Step Temp E_pair E_mol TotEng Press
15022            0    146.18643    1773.4471    1919.6335    540.99564
Loop time of 0.533294 on 1 procs for 2357 steps with 180 atoms

Minimization stats:
  Stopping criterion = energy tolerance
  Energy initial, next-to-last, final =
  Force two-norm initial, final = 12.4241 3.31642e-05
  Force max component initial, final = 2.28416 7.73302e-06
  Final line search alpha, max atom move = 0 0
  Iterations, force evaluations = 2357 2357

variable        AtomMinStep equal 15022
variable        temppe     equal $(pe)
variable        temppe     equal 1919.4759276282027258
variable        min_E      equal abs(1919.78255099852-1919.4759276282)
variable        prev_E     equal 1919.4759276282
next            iter
jump            SELF loop_min
min_style       cg
fix             1 all box/relax aniso 0.0 vmax 0.01
minimize        1.0e-15 1.0e-15 10000 100000
Step Temp E_pair E_mol TotEng Press Volume
17379 8.1994849e-11    144.03566    1775.4403    1919.4759   -2149.5296    1657.0335
Loop time of 0.0157798 on 1 procs for 2 steps with 180 atoms

Minimization stats:
  Stopping criterion = linesearch alpha is zero
  Energy initial, next-to-last, final =
  Force two-norm initial, final = 152.412 49.1756
  Force max component initial, final = 105.736 34.263
  Final line search alpha, max atom move = 4.52085e-12 1.54898e-10
  Iterations, force evaluations = 2 55

unfix           1
min_style       fire
variable        tempstp    equal $(step)
variable        tempstp    equal 17381
variable        CellMinStep equal 17381
minimize        1.0e-15 1.0e-15 10000 100000
  Parameters for fire:
    dmax delaystep dtgrow dtshrink alpha0 alphashrink tmax tmin    integrator halfstepback
     0.1        20    1.1      0.5   0.25        0.99   10 0.02 eulerimplicit          yes
Step Temp E_pair E_mol TotEng Press
17381            0    146.49175     1772.832    1919.3237    492.25993
Loop time of 0.548387 on 1 procs for 2388 steps with 180 atoms

Minimization stats:
  Stopping criterion = energy tolerance
  Energy initial, next-to-last, final =
  Force two-norm initial, final = 10.5932 3.75822e-05
  Force max component initial, final = 1.85459 9.27416e-06
  Final line search alpha, max atom move = 0 0
  Iterations, force evaluations = 2388 2388

variable        AtomMinStep equal 17381
variable        temppe     equal $(pe)
variable        temppe     equal 1919.2768483474783352
variable        min_E      equal abs(1919.4759276282-1919.27684834748)
variable        prev_E     equal 1919.27684834748
next            iter
jump            SELF loop_min
min_style       cg
fix             1 all box/relax aniso 0.0 vmax 0.01
minimize        1.0e-15 1.0e-15 10000 100000
Step Temp E_pair E_mol TotEng Press Volume
19769  9.01663e-11    145.10711    1774.1697    1919.2768    -1346.302    1654.5382
Loop time of 0.0160641 on 1 procs for 5 steps with 180 atoms

Minimization stats:
  Stopping criterion = linesearch alpha is zero
  Energy initial, next-to-last, final =
  Force two-norm initial, final = 128.332 17.9514
  Force max component initial, final = 82.9497 13.4333
  Final line search alpha, max atom move = 2.8556e-11 3.836e-10
  Iterations, force evaluations = 5 59

unfix           1
min_style       fire
variable        tempstp    equal $(step)
variable        tempstp    equal 19774
variable        CellMinStep equal 19774
minimize        1.0e-15 1.0e-15 10000 100000
  Parameters for fire:
    dmax delaystep dtgrow dtshrink alpha0 alphashrink tmax tmin    integrator halfstepback
     0.1        20    1.1      0.5   0.25        0.99   10 0.02 eulerimplicit          yes
Step Temp E_pair E_mol TotEng Press
19774            0    146.60688    1772.5368    1919.1437   -207.70052
Loop time of 0.600193 on 1 procs for 2579 steps with 180 atoms

Minimization stats:
  Stopping criterion = energy tolerance
  Energy initial, next-to-last, final =
  Force two-norm initial, final = 11.5095 3.85743e-05
  Force max component initial, final = 1.83689 9.44024e-06
  Final line search alpha, max atom move = 0 0
  Iterations, force evaluations = 2579 2579

variable        AtomMinStep equal 19774
variable        temppe     equal $(pe)
variable        temppe     equal 1918.9600503606420716
variable        min_E      equal abs(1919.27684834748-1918.96005036064)
variable        prev_E     equal 1918.96005036064
next            iter
jump            SELF loop_min
min_style       cg
fix             1 all box/relax aniso 0.0 vmax 0.01
minimize        1.0e-15 1.0e-15 10000 100000
Step Temp E_pair E_mol TotEng Press Volume
22353 9.5904267e-11    145.62982    1773.3302    1918.9601   -966.13683    1652.6555
Loop time of 0.0155874 on 1 procs for 2 steps with 180 atoms

Minimization stats:
  Stopping criterion = linesearch alpha is zero
  Energy initial, next-to-last, final =
  Force two-norm initial, final = 103.888 30.5504
  Force max component initial, final = 63.5905 23.3796
  Final line search alpha, max atom move = 7.41394e-12 1.73335e-10
  Iterations, force evaluations = 2 55

unfix           1
min_style       fire
variable        tempstp    equal $(step)
variable        tempstp    equal 22355
variable        CellMinStep equal 22355
minimize        1.0e-15 1.0e-15 10000 100000
  Parameters for fire:
    dmax delaystep dtgrow dtshrink alpha0 alphashrink tmax tmin    integrator halfstepback
     0.1        20    1.1      0.5   0.25        0.99   10 0.02 eulerimplicit          yes
Step Temp E_pair E_mol TotEng Press
22355            0    146.75282    1772.1539    1918.9068    254.17816
Loop time of 0.459552 on 1 procs for 2003 steps with 180 atoms

Minimization stats:
  Stopping criterion = energy tolerance
  Energy initial, next-to-last, final =
  Force two-norm initial, final = 7.59656 4.78287e-05
  Force max component initial, final = 1.22459 1.15314e-05
  Final line search alpha, max atom move = 0 0
  Iterations, force evaluations = 2003 2003

variable        AtomMinStep equal 22355
variable        temppe     equal $(pe)
variable        temppe     equal 1918.9034389179550999
variable        min_E      equal abs(1918.96005036064-1918.90343891796)
variable        prev_E     equal 1918.90343891796
next            iter
jump            SELF loop_min
min_style       cg
fix             1 all box/relax aniso 0.0 vmax 0.01
minimize        1.0e-15 1.0e-15 10000 100000
Step Temp E_pair E_mol TotEng Press Volume
24358 1.5428592e-10     146.0996    1772.8038    1918.9034   -689.21167    1651.4706
Loop time of 0.0173828 on 1 procs for 7 steps with 180 atoms

Minimization stats:
  Stopping criterion = linesearch alpha is zero
  Energy initial, next-to-last, final =
  Force two-norm initial, final = 90.8011 31.5462
  Force max component initial, final = 53.8505 19.4931
  Final line search alpha, max atom move = 6.97563e-12 1.35977e-10
  Iterations, force evaluations = 7 65

unfix           1
min_style       fire
variable        tempstp    equal $(step)
variable        tempstp    equal 24365
variable        CellMinStep equal 24365
minimize        1.0e-15 1.0e-15 10000 100000
  Parameters for fire:
    dmax delaystep dtgrow dtshrink alpha0 alphashrink tmax tmin    integrator halfstepback
     0.1        20    1.1      0.5   0.25        0.99   10 0.02 eulerimplicit          yes
Step Temp E_pair E_mol TotEng Press
24365            0    147.85294    1770.9438    1918.7967    738.16658
Loop time of 0.46238 on 1 procs for 1966 steps with 180 atoms

Minimization stats:
  Stopping criterion = energy tolerance
  Energy initial, next-to-last, final =
  Force two-norm initial, final = 6.29123 4.00846e-05
  Force max component initial, final = 0.892277 1.07449e-05
  Final line search alpha, max atom move = 0 0
  Iterations, force evaluations = 1966 1966

variable        AtomMinStep equal 24365
variable        temppe     equal $(pe)
variable        temppe     equal 1918.7596834637065513
variable        min_E      equal abs(1918.90343891796-1918.75968346371)
variable        prev_E     equal 1918.75968346371
next            iter
jump            SELF loop_min
min_style       cg
fix             1 all box/relax aniso 0.0 vmax 0.01
minimize        1.0e-15 1.0e-15 10000 100000
Step Temp E_pair E_mol TotEng Press Volume
26331 9.9656912e-11    146.86881    1771.8909    1918.7597   -152.00034    1649.4165
Loop time of 0.0154726 on 1 procs for 1 steps with 180 atoms

Minimization stats:
  Stopping criterion = linesearch alpha is zero
  Energy initial, next-to-last, final =
  Force two-norm initial, final = 70.9524 70.9524
  Force max component initial, final = 54.0393 54.0393
  Final line search alpha, max atom move = 1.37873e-12 7.45058e-11
  Iterations, force evaluations = 1 55

unfix           1
min_style       fire
variable        tempstp    equal $(step)
variable        tempstp    equal 26332
variable        CellMinStep equal 26332
minimize        1.0e-15 1.0e-15 10000 100000
  Parameters for fire:
    dmax delaystep dtgrow dtshrink alpha0 alphashrink tmax tmin    integrator halfstepback
     0.1        20    1.1      0.5   0.25        0.99   10 0.02 eulerimplicit          yes
Step Temp E_pair E_mol TotEng Press
26332            0    146.86881    1771.8909    1918.7597   -152.00034
Loop time of 0.0137502 on 1 procs for 55 steps with 180 atoms

Minimization stats:
  Stopping criterion = energy tolerance
  Energy initial, next-to-last, final =
  Force two-norm initial, final = 4.00846e-05 3.52075e-05
  Force max component initial, final = 1.07449e-05 9.40699e-06
  Final line search alpha, max atom move = 0 0
  Iterations, force evaluations = 55 55

variable        AtomMinStep equal 26332
variable        temppe     equal $(pe)
variable        temppe     equal 1918.7596834635482992
variable        min_E      equal abs(1918.75968346371-1918.75968346355)
jump SELF break_min
undump          NiPyC2_relax_sc211_meta_functionalized_CH2-CH2-CH3_xyzmov

# Dump last snapshot for restart
variable curr_lx equal lx
variable curr_ly equal ly
variable curr_lz equal lz
change_box all x final 0 14.214010493844 y final 0 10.1010110221916 z final 0 11.4881171867547
  triclinic box = (0 1.21119 -0.606919) to (14.214 11.3122 10.8812) with tilt (0 -0.254483 0)
  triclinic box = (0 0 -0.606919) to (14.214 10.101 10.8812) with tilt (0 -0.254483 0)
  triclinic box = (0 0 0) to (14.214 10.101 11.4881) with tilt (0 -0.254483 0)

reset_timestep 0
dump            NiPyC2_relax_sc211_meta_functionalized_CH2-CH2-CH3_restart all atom 1 NiPyC2_relax_sc211_meta_functionalized_CH2-CH2-CH3_restart.lammpstrj
dump_modify     NiPyC2_relax_sc211_meta_functionalized_CH2-CH2-CH3_restart scale no sort id
run 0
Step Temp E_pair E_mol TotEng Press
0 8.6062661e-11    146.86881    1771.8909    1918.7597    -152.0027
Loop time of 8.47998e-07 on 1 procs for 0 steps with 180 atoms

undump          NiPyC2_relax_sc211_meta_functionalized_CH2-CH2-CH3_restart
units           real
atom_style      full
boundary        p p p

pair_style      lj/cut 5.000
bond_style      harmonic
angle_style     hybrid cosine/periodic fourier
dihedral_style  harmonic
improper_style  fourier

pair_modify     tail yes mix arithmetic
special_bonds   lj/coul 0.0 0.0 1.0
dielectric      1.0
box tilt        large
read_data       data.NiPyC2_relax_sc211_meta_functionalized_CH2-CH2-CH3
  triclinic box = (0 0 0) to (12.5056 12.5234 10.2743) with tilt (0 -0.227594 0)
  reading atoms ...
  180 atoms
  scanning bonds ...
  scanning angles ...
  scanning dihedrals ...
  scanning impropers ...
  reading bonds ...
  200 bonds
  reading angles ...
  388 angles
  reading dihedrals ...
  448 dihedrals
  reading impropers ...
  168 impropers

#### Atom Groupings ####
group           fram     id   1:180
180 atoms in group fram
#### END Atom Groupings ####

dump            NiPyC2_relax_sc211_meta_functionalized_CH2-CH2-CH3_xyzmov all xyz 20000 NiPyC2_relax_sc211_meta_functionalized_CH2-CH2-CH3_mov.xyz
dump_modify     NiPyC2_relax_sc211_meta_functionalized_CH2-CH2-CH3_xyzmov element Ni O N C H C
min_style       cg
print           "MinStep,CellMinStep,AtomMinStep,FinalStep,Energy,EDiff" file NiPyC2_relax_sc211_meta_functionalized_CH2-CH2-CH3.min.csv screen no
variable        min_eval   equal 1.00e-06
variable        prev_E     equal 50000.00
variable        iter       loop 100000
label           loop_min
min_style       cg
fix             1 all box/freeze aniso 0.0 vmax 0.01
ERROR: Unrecognized fix style 'box/freeze' (src/modify.cpp:907)
Last command: fix             1 all box/freeze aniso 0.0 vmax 0.01
units           real
atom_style      full
boundary        p p p

pair_style      lj/cut 5.000
bond_style      harmonic
angle_style     hybrid cosine/periodic fourier
dihedral_style  harmonic
improper_style  fourier

pair_modify     tail yes mix arithmetic
special_bonds   lj/coul 0.0 0.0 1.0
dielectric      1.0
box tilt        large
read_data       data.NiPyC2_relax_sc211_meta_functionalized_CH2-CH2-CH3
  triclinic box = (0 0 0) to (12.5056 12.5234 10.2743) with tilt (0 -0.227594 0)
  reading atoms ...
  180 atoms
  scanning bonds ...
  scanning angles ...
  scanning dihedrals ...
  scanning impropers ...
  reading bonds ...
  200 bonds
  reading angles ...
  388 angles
  reading dihedrals ...
  448 dihedrals
  reading impropers ...
  168 impropers

#### Atom Groupings ####
group           fram     id   1:180
180 atoms in group fram
#### END Atom Groupings ####

dump            NiPyC2_relax_sc211_meta_functionalized_CH2-CH2-CH3_xyzmov all xyz 20000 NiPyC2_relax_sc211_meta_functionalized_CH2-CH2-CH3_mov.xyz
dump_modify     NiPyC2_relax_sc211_meta_functionalized_CH2-CH2-CH3_xyzmov element Ni O N C H C
min_style       cg
print           "MinStep,CellMinStep,AtomMinStep,FinalStep,Energy,EDiff" file NiPyC2_relax_sc211_meta_functionalized_CH2-CH2-CH3.min.csv screen no
variable        min_eval   equal 1.00e-06
variable        prev_E     equal 50000.00
variable        iter       loop 100000
label           loop_min
min_style       fire
variable        tempstp    equal $(step)
variable        tempstp    equal 0
variable        CellMinStep equal 0
minimize        1.0e-15 1.0e-15 10000 100000
  update every 1 steps, delay 0 steps, check yes
  Parameters for fire:
    dmax delaystep dtgrow dtshrink alpha0 alphashrink tmax tmin    integrator halfstepback
     0.1        20    1.1      0.5   0.25        0.99   10 0.02 eulerimplicit          yes
Step Temp E_pair E_mol TotEng Press
0            0 1.6852807e+10     2228.566 1.6852809e+10 2.8726302e+12
ERROR on proc 0: Bond atoms 1 6 missing on proc 0 at step 1 (src/ntopo_bond_all.cpp:63)
Last command: minimize        1.0e-15 1.0e-15 10000 100000
units           real
atom_style      full
boundary        p p p

pair_style      lj/cut 5.000
bond_style      harmonic
angle_style     hybrid cosine/periodic fourier
dihedral_style  harmonic
improper_style  fourier

pair_modify     tail yes mix arithmetic
special_bonds   lj/coul 0.0 0.0 1.0
dielectric      1.0
box tilt        large
read_data       data.NiPyC2_relax_sc211_meta_functionalized_CH2-CH2-CH3
  triclinic box = (0 0 0) to (12.5056 12.5234 10.2743) with tilt (0 -0.227594 0)
  reading atoms ...
  180 atoms
  scanning bonds ...
  scanning angles ...
  scanning dihedrals ...
  scanning impropers ...
  reading bonds ...
  200 bonds
  reading angles ...
  388 angles
  reading dihedrals ...
  448 dihedrals
  reading impropers ...
  168 impropers

#### Atom Groupings ####
group           fram     id   1:180
180 atoms in group fram
#### END Atom Groupings ####

dump            NiPyC2_relax_sc211_meta_functionalized_CH2-CH2-CH3_xyzmov all xyz 20000 NiPyC2_relax_sc211_meta_functionalized_CH2-CH2-CH3_mov.xyz
dump_modify     NiPyC2_relax_sc211_meta_functionalized_CH2-CH2-CH3_xyzmov element Ni O N C H C
min_style       cg
print           "MinStep,CellMinStep,AtomMinStep,FinalStep,Energy,EDiff" file NiPyC2_relax_sc211_meta_functionalized_CH2-CH2-CH3.min.csv screen no
variable        min_eval   equal 1.00e-06
variable        prev_E     equal 50000.00
variable        iter       loop 100000
label           loop_min
min_style       fire
variable        tempstp    equal $(step)
variable        tempstp    equal 0
variable        CellMinStep equal 0
minimize        1.0e-15 1.0e-15 10000 100000
  update every 1 steps, delay 0 steps, check yes
  Parameters for fire:
    dmax delaystep dtgrow dtshrink alpha0 alphashrink tmax tmin    integrator halfstepback
     0.1        20    1.1      0.5   0.25        0.99   10 0.02 eulerimplicit          yes
Step Temp E_pair E_mol TotEng Press
0            0 1.6852807e+10     2228.566 1.6852809e+10 2.8726302e+12
ERROR on proc 0: Bond atoms 1 6 missing on proc 0 at step 1 (src/ntopo_bond_all.cpp:63)
Last command: minimize        1.0e-15 1.0e-15 10000 100000
units           real
atom_style      full
boundary        p p p

pair_style      lj/cut 5.000
bond_style      harmonic
angle_style     hybrid cosine/periodic fourier
dihedral_style  harmonic
improper_style  fourier

pair_modify     tail yes mix arithmetic
special_bonds   lj/coul 0.0 0.0 1.0
dielectric      1.0
box tilt        large
read_data       data.NiPyC2_relax_sc211_meta_functionalized_CH2-CH2-CH3
  triclinic box = (0 0 0) to (12.5056 12.5234 10.2743) with tilt (0 -0.227594 0)
  reading atoms ...
  180 atoms
  scanning bonds ...
  scanning angles ...
  scanning dihedrals ...
  scanning impropers ...
  reading bonds ...
  200 bonds
  reading angles ...
  388 angles
  reading dihedrals ...
  448 dihedrals
  reading impropers ...
  168 impropers

#### Atom Groupings ####
group           fram     id   1:180
180 atoms in group fram
#### END Atom Groupings ####

dump            NiPyC2_relax_sc211_meta_functionalized_CH2-CH2-CH3_xyzmov all xyz 20000 NiPyC2_relax_sc211_meta_functionalized_CH2-CH2-CH3_mov.xyz
dump_modify     NiPyC2_relax_sc211_meta_functionalized_CH2-CH2-CH3_xyzmov element Ni O N C H C
min_style       cg
print           "MinStep,CellMinStep,AtomMinStep,FinalStep,Energy,EDiff" file NiPyC2_relax_sc211_meta_functionalized_CH2-CH2-CH3.min.csv screen no
variable        min_eval   equal 1.00e-06
variable        prev_E     equal 50000.00
variable        iter       loop 100000
label           loop_min
min_style       cg
variable        tempstp    equal $(step)
variable        tempstp    equal 0
variable        CellMinStep equal 0
minimize        1.0e-15 1.0e-15 10000 100000
  update every 1 steps, delay 0 steps, check yes
Step Temp E_pair E_mol TotEng Press
0            0 1.6852807e+10     2228.566 1.6852809e+10 2.8726302e+12
Loop time of 0.162629 on 1 procs for 293 steps with 180 atoms

Minimization stats:
  Stopping criterion = linesearch alpha is zero
  Energy initial, next-to-last, final =
  Force two-norm initial, final = 4.79631e+11 12.6903
  Force max component initial, final = 2.12065e+11 3.72251
  Final line search alpha, max atom move = 4.45599e-11 1.65874e-10
  Iterations, force evaluations = 293 601

variable        AtomMinStep equal 0
variable        temppe     equal $(pe)
variable        temppe     equal 2295.8254103629597012
variable        min_E      equal abs(50000-2295.82541036296)
variable        prev_E     equal 2295.82541036296
next            iter
jump            SELF loop_min
min_style       cg
variable        tempstp    equal $(step)
variable        tempstp    equal 293
variable        CellMinStep equal 293
minimize        1.0e-15 1.0e-15 10000 100000
Step Temp E_pair E_mol TotEng Press
293            0    269.43558    2026.3898    2295.8254   -1064.6636
Loop time of 0.023934 on 1 procs for 22 steps with 180 atoms

Minimization stats:
  Stopping criterion = linesearch alpha is zero
  Energy initial, next-to-last, final =
  Force two-norm initial, final = 12.6903 6.41937
  Force max component initial, final = 3.72251 1.31402
  Final line search alpha, max atom move = 2.63629e-10 3.46414e-10
  Iterations, force evaluations = 22 97

variable        AtomMinStep equal 293
variable        temppe     equal $(pe)
variable        temppe     equal 2294.7661012572370964
variable        min_E      equal abs(2295.82541036296-2294.76610125724)
variable        prev_E     equal 2294.76610125724
next            iter
jump            SELF loop_min
min_style       cg
variable        tempstp    equal $(step)
variable        tempstp    equal 315
variable        CellMinStep equal 315
minimize        1.0e-15 1.0e-15 10000 100000
Step Temp E_pair E_mol TotEng Press
315            0    270.13938    2024.6267    2294.7661   -684.90967
Loop time of 0.0189803 on 1 procs for 9 steps with 180 atoms

Minimization stats:
  Stopping criterion = linesearch alpha is zero
  Energy initial, next-to-last, final =
  Force two-norm initial, final = 6.41937 5.92019
  Force max component initial, final = 1.31402 1.11871
  Final line search alpha, max atom move = 2.52235e-10 2.82179e-10
  Iterations, force evaluations = 9 73

variable        AtomMinStep equal 315
variable        temppe     equal $(pe)
variable        temppe     equal 2294.6994777776881165
variable        min_E      equal abs(2294.76610125724-2294.69947777769)
variable        prev_E     equal 2294.69947777769
next            iter
jump            SELF loop_min
min_style       cg
variable        tempstp    equal $(step)
variable        tempstp    equal 324
variable        CellMinStep equal 324
minimize        1.0e-15 1.0e-15 10000 100000
Step Temp E_pair E_mol TotEng Press
324            0    270.08499    2024.6145    2294.6995   -727.94882
Loop time of 0.0157659 on 1 procs for 2 steps with 180 atoms

Minimization stats:
  Stopping criterion = linesearch alpha is zero
  Energy initial, next-to-last, final =
  Force two-norm initial, final = 5.92019 3.02944
  Force max component initial, final = 1.11871 0.449089
  Final line search alpha, max atom move = 8.29522e-10 3.72529e-10
  Iterations, force evaluations = 2 61

variable        AtomMinStep equal 324
variable        temppe     equal $(pe)
variable        temppe     equal 2294.6956112119037243
variable        min_E      equal abs(2294.69947777769-2294.6956112119)
variable        prev_E     equal 2294.6956112119
next            iter
jump            SELF loop_min
min_style       cg
variable        tempstp    equal $(step)
variable        tempstp    equal 326
variable        CellMinStep equal 326
minimize        1.0e-15 1.0e-15 10000 100000
Step Temp E_pair E_mol TotEng Press
326            0    270.08248    2024.6131    2294.6956   -722.64602
Loop time of 0.0143425 on 1 procs for 1 steps with 180 atoms

Minimization stats:
  Stopping criterion = linesearch alpha is zero
  Energy initial, next-to-last, final =
  Force two-norm initial, final = 3.02944 3.02944
  Force max component initial, final = 0.449089 0.449089
  Final line search alpha, max atom move = 8.29522e-10 3.72529e-10
  Iterations, force evaluations = 1 56

variable        AtomMinStep equal 326
variable        temppe     equal $(pe)
variable        temppe     equal 2294.6956112119037243
variable        min_E      equal abs(2294.6956112119-2294.6956112119)
jump SELF break_min
undump          NiPyC2_relax_sc211_meta_functionalized_CH2-CH2-CH3_xyzmov

# Dump last snapshot for restart
variable curr_lx equal lx
variable curr_ly equal ly
variable curr_lz equal lz
change_box all x final 0 12.5056 y final 0 12.5234 z final 0 10.274279
  triclinic box = (0 0 0) to (12.5056 12.5234 10.2743) with tilt (0 -0.227594 0)
  triclinic box = (0 0 0) to (12.5056 12.5234 10.2743) with tilt (0 -0.227594 0)
  triclinic box = (0 0 0) to (12.5056 12.5234 10.2743) with tilt (0 -0.227594 0)

reset_timestep 0
dump            NiPyC2_relax_sc211_meta_functionalized_CH2-CH2-CH3_restart all atom 1 NiPyC2_relax_sc211_meta_functionalized_CH2-CH2-CH3_restart.lammpstrj
dump_modify     NiPyC2_relax_sc211_meta_functionalized_CH2-CH2-CH3_restart scale no sort id
run 0
Step Temp E_pair E_mol TotEng Press
0            0    270.08248    2024.6131    2294.6956   -722.64602
Loop time of 2.80095e-06 on 1 procs for 0 steps with 180 atoms

undump          NiPyC2_relax_sc211_meta_functionalized_CH2-CH2-CH3_restart
