data_NiPyC2_relax_sc211_NiPyC2_relax_sc211_aligned_O-CH2-CH3_NiPyC2_relax_sc211_aligned_O-CH2-CH3_NiPyC2_relax_sc211_aligned_O-CH2-CH3_NiPyC2_relax_sc211_aligned_O-CH2-CH3_NiPyC2_relax_sc211_aligned_O-CH2-CH3_NiPyC2_relax_sc211_aligned_O-CH2-CH3_NiPyC2_relax_sc211_aligned_O-CH2-CH3_NiPyC2_relax_sc211_aligned_O-CH2-CH3_PM
_symmetry_space_group_name_H-M	'P1'
_cell_length_a	12.505600
_cell_length_b	12.523400
_cell_length_c	10.276800
_cell_angle_alpha	90.000000
_cell_angle_beta	91.269000
_cell_angle_gamma	90.000000
_symmetry_Int_Tables_number 1

loop_
_symmetry_equiv_pos_as_xyz
'x,y,z'

loop_
_atom_site_label
_atom_site_type_symbol
_atom_site_fract_x
_atom_site_fract_y
_atom_site_fract_z
Ni1	Ni	0.247002	0.751486	0.836326
Ni2	Ni	0.499972	0.247999	0.339178
O1	O	0.122778	0.347689	0.382873
O2	O	0.371208	0.650977	0.881292
O3	O	0.377630	0.147507	0.377178
O4	O	0.125098	0.852352	0.876261
O5	O	0.473069	0.356160	0.482994
O6	O	0.221137	0.641415	0.979877
O7	O	0.028840	0.135158	0.481078
O8	O	0.276686	0.862758	0.979399
N1	N	0.308437	0.851253	0.704828
N2	N	0.060729	0.148857	0.206052
N3	N	0.186542	0.650310	0.705838
N4	N	0.438810	0.350928	0.208041
C1	C	0.288212	0.970050	0.521984
C2	C	0.038379	0.031106	0.022308
H1	H	0.237124	0.999575	0.443113
H2	H	0.486538	0.002692	0.943499
C3	C	0.390634	0.011770	0.546492
C4	C	0.140244	0.987744	0.046146
C5	C	0.451915	0.970202	0.650371
C6	C	0.202520	0.028353	0.149893
H3	H	0.032063	0.998805	0.673520
H4	H	0.282340	0.998665	0.172602
C7	C	0.208181	0.529704	0.526384
C8	C	0.458545	0.471409	0.027904
H5	H	0.258700	0.500895	0.449282
H6	H	0.008641	0.500397	0.950548
C9	C	0.245137	0.613331	0.606435
C10	C	0.496819	0.388677	0.108617
C11	C	0.249476	0.889206	0.603203
C12	C	0.001069	0.112232	0.104247
C13	C	0.407977	0.889383	0.727552
C14	C	0.159935	0.109547	0.227812
H7	H	0.453370	0.855173	0.808761
H8	H	0.206239	0.143103	0.308797
C15	C	0.088862	0.608983	0.727352
C16	C	0.340890	0.391633	0.229394
H9	H	0.043729	0.642944	0.806608
H10	H	0.296378	0.357526	0.309051
C17	C	0.046925	0.525079	0.651312
C18	C	0.297658	0.474711	0.152754
H11	H	0.468672	0.493231	0.673502
H12	H	0.218952	0.505201	0.175264
C19	C	0.108164	0.484270	0.550116
C20	C	0.357832	0.515656	0.050638
C21	C	0.433310	0.099319	0.466621
C22	C	0.181517	0.899720	0.965672
C23	C	0.067378	0.394474	0.470676
C24	C	0.316043	0.604172	0.969107
Ni3	Ni	0.747002	0.751486	0.836326
Ni4	Ni	0.999972	0.247999	0.339178
O9	O	0.622779	0.347689	0.382873
O10	O	0.871208	0.650977	0.881292
O11	O	0.877630	0.147507	0.377178
O12	O	0.625098	0.852352	0.876261
O13	O	0.973069	0.356160	0.482994
O14	O	0.721137	0.641415	0.979877
O15	O	0.528840	0.135158	0.481078
O16	O	0.776686	0.862758	0.979399
N5	N	0.808437	0.851253	0.704828
N6	N	0.560729	0.148857	0.206052
N7	N	0.686543	0.650310	0.705838
N8	N	0.938810	0.350928	0.208041
C25	C	0.788212	0.970050	0.521984
C26	C	0.538379	0.031106	0.022308
H13	H	0.737124	0.999575	0.443113
H14	H	0.986538	0.002692	0.943499
C27	C	0.890634	0.011770	0.546492
C28	C	0.640244	0.987744	0.046146
C29	C	0.951915	0.970202	0.650371
C30	C	0.702520	0.028353	0.149893
H15	H	0.532062	0.998805	0.673520
H16	H	0.782340	0.998665	0.172602
C31	C	0.708182	0.529704	0.526384
C32	C	0.958546	0.471409	0.027904
H17	H	0.758700	0.500895	0.449282
H18	H	0.508641	0.500397	0.950548
C33	C	0.745137	0.613331	0.606435
C34	C	0.996819	0.388677	0.108617
C35	C	0.749476	0.889206	0.603203
C36	C	0.501069	0.112232	0.104247
C37	C	0.907977	0.889383	0.727552
C38	C	0.659934	0.109547	0.227812
H19	H	0.953370	0.855173	0.808761
H20	H	0.706240	0.143103	0.308797
C39	C	0.588862	0.608983	0.727352
C40	C	0.840890	0.391633	0.229394
H21	H	0.543729	0.642944	0.806608
H22	H	0.796378	0.357526	0.309051
C41	C	0.546925	0.525079	0.651312
C42	C	0.797658	0.474711	0.152754
H23	H	0.968672	0.493231	0.673502
H24	H	0.718952	0.505201	0.175264
C43	C	0.608164	0.484270	0.550116
C44	C	0.857832	0.515656	0.050638
C45	C	0.933310	0.099319	0.466621
C46	C	0.681517	0.899720	0.965672
C47	C	0.567377	0.394474	0.470676
C48	C	0.816043	0.604172	0.969107
Ofg1	Ofg	0.147522	0.849530	0.574794
Cfg1	Cfg	0.097289	0.770312	0.644271
Cfg2	Cfg	0.987323	0.748911	0.583707
Hfg1	Hfg	0.087679	0.796112	0.746886
Hfg2	Hfg	0.145115	0.695518	0.641646
Hfg3	Hfg	0.938004	0.822630	0.585918
Hfg4	Hfg	0.946538	0.685271	0.639166
Hfg5	Hfg	0.995169	0.722510	0.481173
Ofg2	Ofg	0.899702	0.153622	0.076301
Cfg3	Cfg	0.850823	0.233313	0.146425
Cfg4	Cfg	0.741134	0.256696	0.086230
Hfg6	Hfg	0.840940	0.207220	0.248885
Hfg7	Hfg	0.899821	0.307360	0.144215
Hfg8	Hfg	0.690659	0.183749	0.088036
Hfg9	Hfg	0.701435	0.320724	0.142210
Hfg10	Hfg	0.749263	0.283417	0.983859
Ofg3	Ofg	0.344696	0.656874	0.579517
Cfg5	Cfg	0.392899	0.739253	0.648301
Cfg6	Cfg	0.500654	0.764362	0.589771
Hfg11	Hfg	0.341847	0.811885	0.642818
Hfg12	Hfg	0.405673	0.715520	0.751748
Hfg13	Hfg	0.489618	0.788773	0.486432
Hfg14	Hfg	0.539802	0.830553	0.644684
Hfg15	Hfg	0.553143	0.692862	0.594847
Ofg4	Ofg	0.597261	0.346872	0.082137
Cfg7	Cfg	0.646846	0.265608	0.151480
Cfg8	Cfg	0.755153	0.242275	0.093362
Hfg16	Hfg	0.597142	0.192041	0.146256
Hfg17	Hfg	0.658999	0.289904	0.254827
Hfg18	Hfg	0.744750	0.217333	0.990131
Hfg19	Hfg	0.795411	0.176985	0.148725
Hfg20	Hfg	0.806315	0.314734	0.098190
Ofg5	Ofg	0.647521	0.849531	0.574794
Cfg9	Cfg	0.597287	0.770316	0.644276
Cfg10	Cfg	0.487323	0.748912	0.583708
Hfg21	Hfg	0.645113	0.695521	0.641659
Hfg22	Hfg	0.587674	0.796122	0.746887
Hfg23	Hfg	0.495172	0.722504	0.481177
Hfg24	Hfg	0.446536	0.685275	0.639170
Hfg25	Hfg	0.438004	0.822631	0.585909
Ofg6	Ofg	0.399702	0.153621	0.076302
Cfg11	Cfg	0.350820	0.233309	0.146430
Cfg12	Cfg	0.241134	0.256695	0.086231
Hfg26	Hfg	0.399819	0.307357	0.144228
Hfg27	Hfg	0.340935	0.207211	0.248886
Hfg28	Hfg	0.249266	0.283423	0.983863
Hfg29	Hfg	0.201433	0.320720	0.142214
Hfg30	Hfg	0.190659	0.183748	0.088028
Ofg7	Ofg	0.844696	0.656875	0.579516
Cfg13	Cfg	0.892899	0.739254	0.648300
Cfg14	Cfg	0.000654	0.764364	0.589769
Hfg31	Hfg	0.841847	0.811886	0.642817
Hfg32	Hfg	0.905674	0.715521	0.751746
Hfg33	Hfg	0.989617	0.788775	0.486430
Hfg34	Hfg	0.039801	0.830555	0.644682
Hfg35	Hfg	0.053143	0.692864	0.594845
Ofg8	Ofg	0.097261	0.346872	0.082137
Cfg15	Cfg	0.146845	0.265607	0.151481
Cfg16	Cfg	0.255152	0.242273	0.093363
Hfg36	Hfg	0.097141	0.192041	0.146256
Hfg37	Hfg	0.158999	0.289902	0.254827
Hfg38	Hfg	0.244749	0.217331	0.990132
Hfg39	Hfg	0.295410	0.176983	0.148726
Hfg40	Hfg	0.306315	0.314732	0.098190

loop_
_geom_bond_atom_site_label_1
_geom_bond_atom_site_label_2
_geom_bond_distance
Ni1	O2	0.16599
Ni1	O4	0.16318
Ni1	O6	0.18273
Ni1	O8	0.18366
Ni1	N1	0.17612
Ni1	N3	0.17584
Ni2	O3	0.16282
Ni2	O5	0.18195
Ni2	N4	0.17757
Ni2	O9	0.16410
Ni2	O15	0.18358
Ni2	N6	0.17676
O1	C23	0.11387
O1	Ni4	0.16410
O2	C24	0.11378
O3	C21	0.11586
O4	C22	0.11585
O5	C47	0.10254
O6	C24	0.10252
O7	Ni4	0.18358
O7	C45	0.10305
O8	C22	0.10301
N1	C11	0.12347
N1	C13	0.10899
N2	C12	0.12355
N2	C14	0.10891
N2	Ni4	0.17676
N3	C9	0.12117
N3	C15	0.10822
N4	C10	0.12114
N4	C16	0.10817
C1	H1	0.09850
C1	C3	0.11328
C1	C11	0.12097
C2	C4	0.11325
C2	C12	0.12119
C2	H14	0.09852
H2	C26	0.09852
C3	C5	0.12757
C3	C21	0.12596
C4	C6	0.12764
C4	C22	0.12621
C5	C13	0.12008
C5	H15	0.08819
C6	H4	0.08814
C6	C14	0.12032
H3	C29	0.08819
C7	H5	0.09658
C7	C9	0.12152
C7	C19	0.11239
C8	C10	0.12175
C8	C20	0.11233
C8	H18	0.09661
H6	C32	0.09661
C9	Ofg3	0.11195
C10	Ofg4	0.11197
C11	Ofg1	0.11303
C12	Ofg2	0.11300
C13	H7	0.09912
C14	H8	0.09914
C15	H9	0.09732
C15	C17	0.12075
C16	H10	0.09742
C16	C18	0.12102
C17	C19	0.12512
C17	H23	0.08735
C18	H12	0.08736
C18	C20	0.12540
H11	C41	0.08735
C19	C23	0.12664
C20	C24	0.12739
C21	O15	0.10305
C23	O13	0.10254
Ni3	O10	0.16599
Ni3	O12	0.16318
Ni3	O14	0.18273
Ni3	O16	0.18366
Ni3	N5	0.17612
Ni3	N7	0.17584
Ni4	O11	0.16282
Ni4	O13	0.18195
Ni4	N8	0.17757
O9	C47	0.11388
O10	C48	0.11378
O11	C45	0.11586
O12	C46	0.11585
O14	C48	0.10252
O16	C46	0.10301
N5	C35	0.12347
N5	C37	0.10899
N6	C36	0.12355
N6	C38	0.10891
N7	C33	0.12117
N7	C39	0.10822
N8	C34	0.12114
N8	C40	0.10817
C25	H13	0.09850
C25	C27	0.11328
C25	C35	0.12097
C26	C28	0.11325
C26	C36	0.12119
C27	C29	0.12757
C27	C45	0.12596
C28	C30	0.12764
C28	C46	0.12621
C29	C37	0.12008
C30	H16	0.08814
C30	C38	0.12032
C31	H17	0.09658
C31	C33	0.12152
C31	C43	0.11239
C32	C34	0.12175
C32	C44	0.11233
C33	Ofg7	0.11195
C34	Ofg8	0.11197
C35	Ofg5	0.11303
C36	Ofg6	0.11300
C37	H19	0.09912
C38	H20	0.09914
C39	H21	0.09732
C39	C41	0.12075
C40	H22	0.09742
C40	C42	0.12102
C41	C43	0.12512
C42	H24	0.08736
C42	C44	0.12540
C43	C47	0.12664
C44	C48	0.12739
Ofg1	Cfg1	0.11673
Cfg1	Cfg2	0.12735
Cfg1	Hfg1	0.10624
Cfg1	Hfg2	0.08882
Cfg2	Hfg3	0.08872
Cfg2	Hfg4	0.09375
Cfg2	Hfg5	0.10617
Hfg1	Hfg2	0.15650
Hfg3	Hfg4	0.14757
Hfg3	Hfg5	0.15577
Hfg4	Hfg5	0.16945
Ofg2	Cfg3	0.11686
Cfg3	Cfg4	0.12729
Cfg3	Hfg6	0.10619
Cfg3	Hfg7	0.08882
Cfg4	Hfg8	0.08873
Cfg4	Hfg9	0.09386
Cfg4	Hfg10	0.10611
Hfg6	Hfg7	0.15637
Hfg8	Hfg9	0.14769
Hfg8	Hfg10	0.15563
Hfg9	Hfg10	0.16957
Ofg3	Cfg5	0.11765
Cfg5	Cfg6	0.12517
Cfg5	Hfg11	0.08895
Cfg5	Hfg12	0.10690
Cfg6	Hfg13	0.10676
Cfg6	Hfg14	0.09449
Cfg6	Hfg15	0.08884
Hfg11	Hfg12	0.15883
Hfg13	Hfg14	0.17119
Hfg13	Hfg15	0.15808
Hfg14	Hfg15	0.14704
Ofg4	Cfg7	0.11778
Cfg7	Cfg8	0.12511
Cfg7	Hfg16	0.08894
Cfg7	Hfg17	0.10686
Cfg8	Hfg18	0.10671
Cfg8	Hfg19	0.09460
Cfg8	Hfg20	0.08883
Hfg16	Hfg17	0.15872
Hfg18	Hfg19	0.17131
Hfg18	Hfg20	0.15797
Hfg19	Hfg20	0.14713
Ofg5	Cfg9	0.11673
Cfg9	Cfg10	0.12735
Cfg9	Hfg21	0.08882
Cfg9	Hfg22	0.10624
Cfg10	Hfg23	0.10617
Cfg10	Hfg24	0.09375
Cfg10	Hfg25	0.08872
Hfg21	Hfg22	0.15650
Hfg23	Hfg24	0.16945
Hfg23	Hfg25	0.15576
Hfg24	Hfg25	0.14757
Ofg6	Cfg11	0.11686
Cfg11	Cfg12	0.12729
Cfg11	Hfg26	0.08882
Cfg11	Hfg27	0.10619
Cfg12	Hfg28	0.10611
Cfg12	Hfg29	0.09386
Cfg12	Hfg30	0.08873
Hfg26	Hfg27	0.15636
Hfg28	Hfg29	0.16957
Hfg28	Hfg30	0.15563
Hfg29	Hfg30	0.14769
Ofg7	Cfg13	0.11765
Cfg13	Cfg14	0.12517
Cfg13	Hfg31	0.08895
Cfg13	Hfg32	0.10690
Cfg14	Hfg33	0.10676
Cfg14	Hfg34	0.09449
Cfg14	Hfg35	0.08884
Hfg31	Hfg32	0.15883
Hfg33	Hfg34	0.17119
Hfg33	Hfg35	0.15808
Hfg34	Hfg35	0.14704
Ofg8	Cfg15	0.11778
Cfg15	Cfg16	0.12511
Cfg15	Hfg36	0.08894
Cfg15	Hfg37	0.10686
Cfg16	Hfg38	0.10671
Cfg16	Hfg39	0.09460
Cfg16	Hfg40	0.08883
Hfg36	Hfg37	0.15872
Hfg38	Hfg39	0.17131
Hfg38	Hfg40	0.15797
Hfg39	Hfg40	0.14713
