
data_
_chemical_name_mineral ?hkl_Phase?
_cell_length_a 11.9039(9)
_cell_length_b 7.0759(6)
_cell_length_c 10.6359(8)
_cell_angle_alpha 90
_cell_angle_beta 90
_cell_angle_gamma 90
_cell_volume 895.87(12)
_symmetry_space_group_name_H-M Pnn2
loop_
	_symmetry_equiv_pos_as_xyz
	 'x, y, z '
	 '-x+1/2, y+1/2, z+1/2 '
	 '-x, -y, z '
	 'x+1/2, -y+1/2, z+1/2 '
loop_
_atom_site_label
_atom_site_type_symbol
_atom_site_symmetry_multiplicity
_atom_site_fract_x
_atom_site_fract_y
_atom_site_fract_z
_atom_site_occupancy
_atom_site_B_iso_or_equiv
Ni1 Ni   2 0 0.5 0.5289(6) 1 2.01(11)
O012 O   4 -0.3869(7) -0.7871(17) 0.0735(8) 1 1.61(14)
O022 O   4 -0.3852(8) -1.0401(15) 0.1901(9) 1 1.61(14)
C032 C   4 -0.2279(6) -0.5983(12) 0.2372(7) 1 1.61(14)
C042 C   4 -0.2048(7) -0.8952(12) 0.3452(7) 1 1.61(14)
C052 C   4 -0.1176(6) -0.8082(13) 0.4161(7) 1 1.61(14)
H062 H   4 -0.0695(7) -0.8909(15) 0.4836(8) 1 1.61(14)
H072 H   4 -0.1985(9) -1.1346(13) 0.4522(9) 1 1.61(14)
N082 N   4 -0.0935(7) -0.6250(13) 0.4060(7) 1 1.61(14)
N092 N   4 -0.2338(8) -1.0720(12) 0.3738(9) 1 1.61(14)
C102 C   4 -0.2590(6) -0.7874(12) 0.2493(7) 1 1.61(14)
H112 H   4 -0.3005(9) -1.1284(13) 0.3247(9) 1 1.61(14)
C122 C   4 -0.3458(7) -0.8727(14) 0.1701(8) 1 1.61(14)
C132 C   4 -0.1468(7) -0.5199(12) 0.3172(7) 1 1.61(14)
H142 H   4 -0.1240(8) -0.3714(12) 0.3130(9) 1 1.61(14)
H152 H   4 -0.2691(7) -0.5059(13) 0.1698(8) 1 1.61(14)
