
data_
_chemical_name_mineral ?hkl_Phase?
_cell_length_a 11.8947(19)
_cell_length_b 7.1038(9)
_cell_length_c 10.6399(18)
_cell_angle_alpha 90
_cell_angle_beta 90
_cell_angle_gamma 90
_cell_volume 899.0(2)
_symmetry_space_group_name_H-M Pnn2
loop_
	_symmetry_equiv_pos_as_xyz
	 'x, y, z '
	 '-x+1/2, y+1/2, z+1/2 '
	 '-x, -y, z '
	 'x+1/2, -y+1/2, z+1/2 '
loop_
_atom_site_label
_atom_site_type_symbol
_atom_site_symmetry_multiplicity
_atom_site_fract_x
_atom_site_fract_y
_atom_site_fract_z
_atom_site_occupancy
_atom_site_B_iso_or_equiv
Ni1 Ni   2 0 0.5 0.4646(10) 1 1.3(2)
O012 O   4 -0.387(2) -0.792(4) 0.0074(18) 1 1.6(3)
O022 O   4 -0.384(2) -1.044(3) 0.124(2) 1 1.6(3)
C032 C   4 -0.2289(14) -0.602(2) 0.1705(11) 1 1.6(3)
C042 C   4 -0.2037(14) -0.897(2) 0.2783(11) 1 1.6(3)
C052 C   4 -0.1168(14) -0.809(3) 0.3489(12) 1 1.6(3)
H062 H   4 -0.0680(18) -0.891(3) 0.4161(15) 1 1.6(3)
H072 H   4 -0.196(2) -1.136(3) 0.3850(16) 1 1.6(3)
N082 N   4 -0.0938(15) -0.626(3) 0.3388(13) 1 1.6(3)
N092 N   4 -0.2317(19) -1.074(2) 0.3068(15) 1 1.6(3)
C102 C   4 -0.2589(13) -0.791(2) 0.1826(11) 1 1.6(3)
H112 H   4 -0.298(2) -1.131(3) 0.2579(18) 1 1.6(3)
C122 C   4 -0.3455(16) -0.877(3) 0.1037(16) 1 1.6(3)
C132 C   4 -0.1480(15) -0.523(2) 0.2503(12) 1 1.6(3)
H142 H   4 -0.1260(19) -0.374(2) 0.2461(16) 1 1.6(3)
H152 H   4 -0.2708(17) -0.510(3) 0.1034(13) 1 1.6(3)