units           real
atom_style      full
boundary        p p p

pair_style      lj/cut 5.000
bond_style      harmonic
angle_style     hybrid cosine/periodic fourier
dihedral_style  harmonic
improper_style  fourier

pair_modify     tail yes mix arithmetic
special_bonds   lj/coul 0.0 0.0 1.0
dielectric      1.0
box tilt        large
read_data       data.NiPyC2_relax_sc211_meta_functionalized_PH2
  triclinic box = (0 0 0) to (12.5056 12.5234 10.2743) with tilt (0 -0.227594 0)
  reading atoms ...
  124 atoms
  scanning bonds ...
  scanning angles ...
  scanning dihedrals ...
  scanning impropers ...
  reading bonds ...
  144 bonds
  reading angles ...
  268 angles
  reading dihedrals ...
  288 dihedrals
  reading impropers ...
  168 impropers

#### Atom Groupings ####
group           fram     id   1:124
124 atoms in group fram
#### END Atom Groupings ####

dump            NiPyC2_relax_sc211_meta_functionalized_PH2_xyzmov all xyz 20000 NiPyC2_relax_sc211_meta_functionalized_PH2_mov.xyz
dump_modify     NiPyC2_relax_sc211_meta_functionalized_PH2_xyzmov element Ni O N C H P
min_style       cg
print           "MinStep,CellMinStep,AtomMinStep,FinalStep,Energy,EDiff" file NiPyC2_relax_sc211_meta_functionalized_PH2.min.csv screen no
variable        min_eval   equal 1.00e-06
variable        prev_E     equal 50000.00
variable        iter       loop 100000
label           loop_min
min_style       cg
fix             1 all box/relax aniso 0.0 vmax 0.01
minimize        1.0e-15 1.0e-15 10000 100000
  update every 1 steps, delay 0 steps, check yes
Step Temp E_pair E_mol TotEng Press Volume
0            0    31872.059    2267.2498    34139.308    5379270.1    1609.0819
Loop time of 0.0505922 on 1 procs for 145 steps with 124 atoms

Minimization stats:
  Stopping criterion = linesearch alpha is zero
  Energy initial, next-to-last, final =
  Force two-norm initial, final = 340270 108.854
  Force max component initial, final = 200162 80.4553
  Final line search alpha, max atom move = 6.0385e-13 4.85829e-11
  Iterations, force evaluations = 145 287

unfix           1
min_style       fire
variable        tempstp    equal $(step)
variable        tempstp    equal 145
variable        CellMinStep equal 145
minimize        1.0e-15 1.0e-15 10000 100000
  Parameters for fire:
    dmax delaystep dtgrow dtshrink alpha0 alphashrink tmax tmin    integrator halfstepback
     0.1        20    1.1      0.5   0.25        0.99   10 0.02 eulerimplicit          yes
Step Temp E_pair E_mol TotEng Press
145            0    110.66055     1547.288    1657.9486    725.25274
Loop time of 0.992062 on 1 procs for 7861 steps with 124 atoms

Minimization stats:
  Stopping criterion = energy tolerance
  Energy initial, next-to-last, final =
  Force two-norm initial, final = 66.3637 3.45522e-05
  Force max component initial, final = 21.4897 1.25526e-05
  Final line search alpha, max atom move = 0 0
  Iterations, force evaluations = 7861 7861

variable        AtomMinStep equal 145
variable        temppe     equal $(pe)
variable        temppe     equal 1587.702812452939952
variable        min_E      equal abs(50000-1587.70281245294)
variable        prev_E     equal 1587.70281245294
next            iter
jump            SELF loop_min
min_style       cg
fix             1 all box/relax aniso 0.0 vmax 0.01
minimize        1.0e-15 1.0e-15 10000 100000
Step Temp E_pair E_mol TotEng Press Volume
8006 1.7167411e-10    53.842245    1533.8606    1587.7028   -20640.997    1543.7302
Loop time of 0.00976798 on 1 procs for 5 steps with 124 atoms

Minimization stats:
  Stopping criterion = linesearch alpha is zero
  Energy initial, next-to-last, final =
  Force two-norm initial, final = 864.798 70.6703
  Force max component initial, final = 699.708 38.0886
  Final line search alpha, max atom move = 1.92465e-12 7.33073e-11
  Iterations, force evaluations = 5 63

unfix           1
min_style       fire
variable        tempstp    equal $(step)
variable        tempstp    equal 8011
variable        CellMinStep equal 8011
minimize        1.0e-15 1.0e-15 10000 100000
  Parameters for fire:
    dmax delaystep dtgrow dtshrink alpha0 alphashrink tmax tmin    integrator halfstepback
     0.1        20    1.1      0.5   0.25        0.99   10 0.02 eulerimplicit          yes
Step Temp E_pair E_mol TotEng Press
8011            0    71.001966    1511.7057    1582.7077   -996.35092
Loop time of 1.27365 on 1 procs for 10000 steps with 124 atoms

Minimization stats:
  Stopping criterion = max iterations
  Energy initial, next-to-last, final =
  Force two-norm initial, final = 52.9467 0.00146219
  Force max component initial, final = 6.74163 0.000440993
  Final line search alpha, max atom move = 0 0
  Iterations, force evaluations = 10000 10000

variable        AtomMinStep equal 8011
variable        temppe     equal $(pe)
variable        temppe     equal 1579.0580534261496268
variable        min_E      equal abs(1587.70281245294-1579.05805342615)
variable        prev_E     equal 1579.05805342615
next            iter
jump            SELF loop_min
min_style       cg
fix             1 all box/relax aniso 0.0 vmax 0.01
minimize        1.0e-15 1.0e-15 10000 100000
Step Temp E_pair E_mol TotEng Press Volume
18011 1.4809361e-10    55.459572    1523.5985    1579.0581   -11967.026    1515.4765
Loop time of 0.00965781 on 1 procs for 5 steps with 124 atoms

Minimization stats:
  Stopping criterion = linesearch alpha is zero
  Energy initial, next-to-last, final =
  Force two-norm initial, final = 490.032 55.7598
  Force max component initial, final = 392.482 34.4328
  Final line search alpha, max atom move = 2.02708e-12 6.9798e-11
  Iterations, force evaluations = 5 63

unfix           1
min_style       fire
variable        tempstp    equal $(step)
variable        tempstp    equal 18016
variable        CellMinStep equal 18016
minimize        1.0e-15 1.0e-15 10000 100000
  Parameters for fire:
    dmax delaystep dtgrow dtshrink alpha0 alphashrink tmax tmin    integrator halfstepback
     0.1        20    1.1      0.5   0.25        0.99   10 0.02 eulerimplicit          yes
Step Temp E_pair E_mol TotEng Press
18016            0    65.027624    1512.4471    1577.4747   -991.04969
Loop time of 0.788257 on 1 procs for 6181 steps with 124 atoms

Minimization stats:
  Stopping criterion = energy tolerance
  Energy initial, next-to-last, final =
  Force two-norm initial, final = 30.1537 4.26673e-05
  Force max component initial, final = 3.80999 1.42243e-05
  Final line search alpha, max atom move = 0 0
  Iterations, force evaluations = 6181 6181

variable        AtomMinStep equal 18016
variable        temppe     equal $(pe)
variable        temppe     equal 1576.6559574952057119
variable        min_E      equal abs(1579.05805342615-1576.65595749521)
variable        prev_E     equal 1576.65595749521
next            iter
jump            SELF loop_min
min_style       cg
fix             1 all box/relax aniso 0.0 vmax 0.01
minimize        1.0e-15 1.0e-15 10000 100000
Step Temp E_pair E_mol TotEng Press Volume
24197 2.1560437e-10    57.430321    1519.2256     1576.656   -6802.4303    1499.8111
Loop time of 0.0118758 on 1 procs for 10 steps with 124 atoms

Minimization stats:
  Stopping criterion = linesearch alpha is zero
  Energy initial, next-to-last, final =
  Force two-norm initial, final = 274.253 23.7452
  Force max component initial, final = 215.636 16.3886
  Final line search alpha, max atom move = 1.14001e-11 1.86833e-10
  Iterations, force evaluations = 10 73

unfix           1
min_style       fire
variable        tempstp    equal $(step)
variable        tempstp    equal 24207
variable        CellMinStep equal 24207
minimize        1.0e-15 1.0e-15 10000 100000
  Parameters for fire:
    dmax delaystep dtgrow dtshrink alpha0 alphashrink tmax tmin    integrator halfstepback
     0.1        20    1.1      0.5   0.25        0.99   10 0.02 eulerimplicit          yes
Step Temp E_pair E_mol TotEng Press
24207            0    63.780358     1511.956    1575.7363    458.48568
Loop time of 0.693795 on 1 procs for 5376 steps with 124 atoms

Minimization stats:
  Stopping criterion = energy tolerance
  Energy initial, next-to-last, final =
  Force two-norm initial, final = 12.8385 3.90492e-05
  Force max component initial, final = 1.7903 1.37589e-05
  Final line search alpha, max atom move = 0 0
  Iterations, force evaluations = 5376 5376

variable        AtomMinStep equal 24207
variable        temppe     equal $(pe)
variable        temppe     equal 1576.0728092040187676
variable        min_E      equal abs(1576.65595749521-1576.07280920402)
variable        prev_E     equal 1576.07280920402
next            iter
jump            SELF loop_min
min_style       cg
fix             1 all box/relax aniso 0.0 vmax 0.01
minimize        1.0e-15 1.0e-15 10000 100000
Step Temp E_pair E_mol TotEng Press Volume
29583 2.2873329e-10    59.111837     1516.961    1576.0728   -3178.5593    1488.6021
Loop time of 0.00848809 on 1 procs for 3 steps with 124 atoms

Minimization stats:
  Stopping criterion = linesearch alpha is zero
  Energy initial, next-to-last, final =
  Force two-norm initial, final = 128.021 12.9223
  Force max component initial, final = 99.2945 9.68022
  Final line search alpha, max atom move = 3.93839e-11 3.81245e-10
  Iterations, force evaluations = 3 55

unfix           1
min_style       fire
variable        tempstp    equal $(step)
variable        tempstp    equal 29586
variable        CellMinStep equal 29586
minimize        1.0e-15 1.0e-15 10000 100000
  Parameters for fire:
    dmax delaystep dtgrow dtshrink alpha0 alphashrink tmax tmin    integrator halfstepback
     0.1        20    1.1      0.5   0.25        0.99   10 0.02 eulerimplicit          yes
Step Temp E_pair E_mol TotEng Press
29586            0    61.397981    1514.5978    1575.9958   -136.06397
Loop time of 0.516082 on 1 procs for 3978 steps with 124 atoms

Minimization stats:
  Stopping criterion = energy tolerance
  Energy initial, next-to-last, final =
  Force two-norm initial, final = 7.4068 3.98048e-05
  Force max component initial, final = 1.1914 1.37538e-05
  Final line search alpha, max atom move = 0 0
  Iterations, force evaluations = 3978 3978

variable        AtomMinStep equal 29586
variable        temppe     equal $(pe)
variable        temppe     equal 1575.7626942760109614
variable        min_E      equal abs(1576.07280920402-1575.76269427601)
variable        prev_E     equal 1575.76269427601
next            iter
jump            SELF loop_min
min_style       cg
fix             1 all box/relax aniso 0.0 vmax 0.01
minimize        1.0e-15 1.0e-15 10000 100000
Step Temp E_pair E_mol TotEng Press Volume
33564 2.0822161e-10    59.465123    1516.2976    1575.7627   -2030.8147    1485.2588
Loop time of 0.0113771 on 1 procs for 2 steps with 124 atoms

Minimization stats:
  Stopping criterion = linesearch alpha is zero
  Energy initial, next-to-last, final =
  Force two-norm initial, final = 81.387 21.3977
  Force max component initial, final = 60.5161 15.9934
  Final line search alpha, max atom move = 1.58049e-11 2.52774e-10
  Iterations, force evaluations = 2 53

unfix           1
min_style       fire
variable        tempstp    equal $(step)
variable        tempstp    equal 33566
variable        CellMinStep equal 33566
minimize        1.0e-15 1.0e-15 10000 100000
  Parameters for fire:
    dmax delaystep dtgrow dtshrink alpha0 alphashrink tmax tmin    integrator halfstepback
     0.1        20    1.1      0.5   0.25        0.99   10 0.02 eulerimplicit          yes
Step Temp E_pair E_mol TotEng Press
33566            0    60.919561    1514.8183    1575.7378    42.628325
Loop time of 0.700603 on 1 procs for 5421 steps with 124 atoms

Minimization stats:
  Stopping criterion = energy tolerance
  Energy initial, next-to-last, final =
  Force two-norm initial, final = 4.81675 4.69712e-05
  Force max component initial, final = 0.695699 1.55382e-05
  Final line search alpha, max atom move = 0 0
  Iterations, force evaluations = 5421 5421

variable        AtomMinStep equal 33566
variable        temppe     equal $(pe)
variable        temppe     equal 1575.6953773274010473
variable        min_E      equal abs(1575.76269427601-1575.6953773274)
variable        prev_E     equal 1575.6953773274
next            iter
jump            SELF loop_min
min_style       cg
fix             1 all box/relax aniso 0.0 vmax 0.01
minimize        1.0e-15 1.0e-15 10000 100000
Step Temp E_pair E_mol TotEng Press Volume
38987 2.2104181e-10    59.733688    1515.9617    1575.6954   -1332.9208    1483.2211
Loop time of 0.00853943 on 1 procs for 1 steps with 124 atoms

Minimization stats:
  Stopping criterion = linesearch alpha is zero
  Energy initial, next-to-last, final =
  Force two-norm initial, final = 53.5847 53.5847
  Force max component initial, final = 36.8358 36.8358
  Final line search alpha, max atom move = 4.04529e-12 1.49012e-10
  Iterations, force evaluations = 1 53

unfix           1
min_style       fire
variable        tempstp    equal $(step)
variable        tempstp    equal 38988
variable        CellMinStep equal 38988
minimize        1.0e-15 1.0e-15 10000 100000
  Parameters for fire:
    dmax delaystep dtgrow dtshrink alpha0 alphashrink tmax tmin    integrator halfstepback
     0.1        20    1.1      0.5   0.25        0.99   10 0.02 eulerimplicit          yes
Step Temp E_pair E_mol TotEng Press
38988            0    59.733688    1515.9617    1575.6954   -1332.9208
Loop time of 0.0125283 on 1 procs for 93 steps with 124 atoms

Minimization stats:
  Stopping criterion = energy tolerance
  Energy initial, next-to-last, final =
  Force two-norm initial, final = 4.69712e-05 3.9404e-05
  Force max component initial, final = 1.55382e-05 1.35337e-05
  Final line search alpha, max atom move = 0 0
  Iterations, force evaluations = 93 93

variable        AtomMinStep equal 38988
variable        temppe     equal $(pe)
variable        temppe     equal 1575.6953773270795409
variable        min_E      equal abs(1575.6953773274-1575.69537732708)
jump SELF break_min
undump          NiPyC2_relax_sc211_meta_functionalized_PH2_xyzmov

# Dump last snapshot for restart
variable curr_lx equal lx
variable curr_ly equal ly
variable curr_lz equal lz
change_box all x final 0 13.6621181990268 y final 0 9.47002448955626 z final 0 11.464015582488
  triclinic box = (0 1.52669 -0.594868) to (13.6621 10.9967 10.8691) with tilt (0 -0.253949 0)
  triclinic box = (0 0 -0.594868) to (13.6621 9.47002 10.8691) with tilt (0 -0.253949 0)
  triclinic box = (0 0 0) to (13.6621 9.47002 11.464) with tilt (0 -0.253949 0)

reset_timestep 0
dump            NiPyC2_relax_sc211_meta_functionalized_PH2_restart all atom 1 NiPyC2_relax_sc211_meta_functionalized_PH2_restart.lammpstrj
dump_modify     NiPyC2_relax_sc211_meta_functionalized_PH2_restart scale no sort id
run 0
Step Temp E_pair E_mol TotEng Press
0 2.1684613e-10    59.733671    1515.9617    1575.6954   -1332.9277
Loop time of 7.75995e-07 on 1 procs for 0 steps with 124 atoms

undump          NiPyC2_relax_sc211_meta_functionalized_PH2_restart
units           real
atom_style      full
boundary        p p p

pair_style      lj/cut 5.000
bond_style      harmonic
angle_style     hybrid cosine/periodic fourier
dihedral_style  harmonic
improper_style  fourier

pair_modify     tail yes mix arithmetic
special_bonds   lj/coul 0.0 0.0 1.0
dielectric      1.0
box tilt        large
read_data       data.NiPyC2_relax_sc211_meta_functionalized_PH2
  triclinic box = (0 0 0) to (12.5056 12.5234 10.2743) with tilt (0 -0.227594 0)
  reading atoms ...
  124 atoms
  scanning bonds ...
  scanning angles ...
  scanning dihedrals ...
  scanning impropers ...
  reading bonds ...
  144 bonds
  reading angles ...
  268 angles
  reading dihedrals ...
  288 dihedrals
  reading impropers ...
  168 impropers

#### Atom Groupings ####
group           fram     id   1:124
124 atoms in group fram
#### END Atom Groupings ####

dump            NiPyC2_relax_sc211_meta_functionalized_PH2_xyzmov all xyz 20000 NiPyC2_relax_sc211_meta_functionalized_PH2_mov.xyz
dump_modify     NiPyC2_relax_sc211_meta_functionalized_PH2_xyzmov element Ni O N C H P
min_style       cg
print           "MinStep,CellMinStep,AtomMinStep,FinalStep,Energy,EDiff,vol,lx,ly,lz,xy,xz,yz" file NiPyC2_relax_sc211_meta_functionalized_PH2.min.csv screen no
variable        min_eval   equal 1.00e-06
variable        prev_E     equal 50000.00
variable        iter       loop 100000
label           loop_min
min_style       cg
variable        tempstp    equal $(step)
variable        tempstp    equal 0
variable        CellMinStep equal 0
minimize        1.0e-15 1.0e-15 10000 100000
  update every 1 steps, delay 0 steps, check yes
Step Temp E_pair E_mol TotEng Press
0            0    31872.059    2267.2498    34139.308    5379270.1
Loop time of 0.0471192 on 1 procs for 131 steps with 124 atoms

Minimization stats:
  Stopping criterion = linesearch alpha is zero
  Energy initial, next-to-last, final =
  Force two-norm initial, final = 234109 22.9318
  Force max component initial, final = 113637 5.12109
  Final line search alpha, max atom move = 1.87974e-11 9.62632e-11
  Iterations, force evaluations = 131 305

variable        AtomMinStep equal 0
variable        temppe     equal $(pe)
variable        temppe     equal 1784.6991888233230839
variable        min_E      equal abs(50000-1784.69918882332)
variable        prev_E     equal 1784.69918882332
next            iter
jump            SELF loop_min
min_style       cg
variable        tempstp    equal $(step)
variable        tempstp    equal 131
variable        CellMinStep equal 131
minimize        1.0e-15 1.0e-15 10000 100000
Step Temp E_pair E_mol TotEng Press
131            0    56.880367    1727.8188    1784.6992   -70640.193
Loop time of 0.00822062 on 1 procs for 1 steps with 124 atoms

Minimization stats:
  Stopping criterion = linesearch alpha is zero
  Energy initial, next-to-last, final =
  Force two-norm initial, final = 22.9318 22.9318
  Force max component initial, final = 5.12109 5.12109
  Final line search alpha, max atom move = 1.8186e-11 9.31323e-11
  Iterations, force evaluations = 1 60

variable        AtomMinStep equal 131
variable        temppe     equal $(pe)
variable        temppe     equal 1784.6991888233242207
variable        min_E      equal abs(1784.69918882332-1784.69918882332)
jump SELF break_min
undump          NiPyC2_relax_sc211_meta_functionalized_PH2_xyzmov

# Dump last snapshot for restart
variable curr_lx equal lx
variable curr_ly equal ly
variable curr_lz equal lz
change_box all x final 0 12.5056 y final 0 12.5234 z final 0 10.274279
  triclinic box = (0 0 0) to (12.5056 12.5234 10.2743) with tilt (0 -0.227594 0)
  triclinic box = (0 0 0) to (12.5056 12.5234 10.2743) with tilt (0 -0.227594 0)
  triclinic box = (0 0 0) to (12.5056 12.5234 10.2743) with tilt (0 -0.227594 0)

reset_timestep 0
dump            NiPyC2_relax_sc211_meta_functionalized_PH2_restart all atom 1 NiPyC2_relax_sc211_meta_functionalized_PH2_restart.lammpstrj
dump_modify     NiPyC2_relax_sc211_meta_functionalized_PH2_restart scale no sort id
run 0
Step Temp E_pair E_mol TotEng Press
0            0    56.880367    1727.8188    1784.6992   -70640.193
Loop time of 7.88001e-07 on 1 procs for 0 steps with 124 atoms

undump          NiPyC2_relax_sc211_meta_functionalized_PH2_restart
