units           real
atom_style      full
boundary        p p p

pair_style      lj/cut 5.000
bond_style      harmonic
angle_style     hybrid cosine/periodic fourier
dihedral_style  harmonic
improper_style  fourier

special_bonds   lj/coul 0.0 0.0 1.0
dielectric      1.0
pair_modify     tail yes mix arithmetic
box tilt        large
read_data       data.NiPyC2_relax_sc211_ortho_functionalized_PH2
  triclinic box = (0 0 0) to (12.5056 12.5234 10.2743) with tilt (0 -0.227594 0)
  reading atoms ...
  124 atoms
  scanning bonds ...
  scanning angles ...
  scanning dihedrals ...
  scanning impropers ...
  reading bonds ...
  144 bonds
  reading angles ...
  268 angles
  reading dihedrals ...
  288 dihedrals
  reading impropers ...
  168 impropers

#### Atom Groupings ####
group           fram     id   1:124
124 atoms in group fram
#### END Atom Groupings ####

dump            NiPyC2_relax_sc211_ortho_functionalized_PH2_xyzmov all xyz 20000 NiPyC2_relax_sc211_ortho_functionalized_PH2_mov.xyz
dump_modify     NiPyC2_relax_sc211_ortho_functionalized_PH2_xyzmov element Ni O N C H P
min_style       cg
print           "MinStep,CellMinStep,AtomMinStep,FinalStep,Energy,EDiff" file NiPyC2_relax_sc211_ortho_functionalized_PH2.min.csv screen no
variable        min_eval   equal 1.00e-06
variable        prev_E     equal 50000.00
variable        iter       loop 100000
label           loop_min
min_style       cg
fix             1 all box/relax aniso 0.0 vmax 0.01
minimize        1.0e-15 1.0e-15 10000 100000
  update every 1 steps, delay 0 steps, check yes
Step Temp E_pair E_mol TotEng Press Volume
0            0    97298.454    2273.0479    99571.502     16544984    1609.0819
Loop time of 0.0709097 on 1 procs for 232 steps with 124 atoms

Minimization stats:
  Stopping criterion = linesearch alpha is zero
  Energy initial, next-to-last, final =
  Force two-norm initial, final = 1.36966e+06 83.01
  Force max component initial, final = 986865 38.5662
  Final line search alpha, max atom move = 9.48422e-13 3.65771e-11
  Iterations, force evaluations = 232 427

unfix           1
min_style       fire
variable        tempstp    equal $(step)
variable        tempstp    equal 232
variable        CellMinStep equal 232
minimize        1.0e-15 1.0e-15 10000 100000
  Parameters for fire:
    dmax delaystep dtgrow dtshrink alpha0 alphashrink tmax tmin    integrator halfstepback
     0.1        20    1.1      0.5   0.25        0.99   10 0.02 eulerimplicit          yes
Step Temp E_pair E_mol TotEng Press
232            0    110.30206    1585.2833    1695.5854    644.28817
Loop time of 0.974223 on 1 procs for 7996 steps with 124 atoms

Minimization stats:
  Stopping criterion = energy tolerance
  Energy initial, next-to-last, final =
  Force two-norm initial, final = 54.8831 4.97894e-05
  Force max component initial, final = 10.7337 8.10599e-06
  Final line search alpha, max atom move = 0 0
  Iterations, force evaluations = 7996 7996

variable        AtomMinStep equal 232
variable        temppe     equal $(pe)
variable        temppe     equal 1682.5980666314492282
variable        min_E      equal abs(50000-1682.59806663145)
variable        prev_E     equal 1682.59806663145
next            iter
jump            SELF loop_min
min_style       cg
fix             1 all box/relax aniso 0.0 vmax 0.01
minimize        1.0e-15 1.0e-15 10000 100000
Step Temp E_pair E_mol TotEng Press Volume
8228 1.9311763e-10    119.91557    1562.6825    1682.5981       5553.4    1635.0537
Loop time of 0.0103192 on 1 procs for 9 steps with 124 atoms

Minimization stats:
  Stopping criterion = linesearch alpha is zero
  Energy initial, next-to-last, final =
  Force two-norm initial, final = 294.278 38.441
  Force max component initial, final = 281.064 23.9916
  Final line search alpha, max atom move = 6.81683e-12 1.63546e-10
  Iterations, force evaluations = 9 69

unfix           1
min_style       fire
variable        tempstp    equal $(step)
variable        tempstp    equal 8237
variable        CellMinStep equal 8237
minimize        1.0e-15 1.0e-15 10000 100000
  Parameters for fire:
    dmax delaystep dtgrow dtshrink alpha0 alphashrink tmax tmin    integrator halfstepback
     0.1        20    1.1      0.5   0.25        0.99   10 0.02 eulerimplicit          yes
Step Temp E_pair E_mol TotEng Press
8237            0    114.94604     1566.864      1681.81    674.58924
Loop time of 0.800082 on 1 procs for 6586 steps with 124 atoms

Minimization stats:
  Stopping criterion = energy tolerance
  Energy initial, next-to-last, final =
  Force two-norm initial, final = 23.798 2.99949e-05
  Force max component initial, final = 3.47243 1.27491e-05
  Final line search alpha, max atom move = 0 0
  Iterations, force evaluations = 6586 6586

variable        AtomMinStep equal 8237
variable        temppe     equal $(pe)
variable        temppe     equal 1648.2410550204504034
variable        min_E      equal abs(1682.59806663145-1648.24105502045)
variable        prev_E     equal 1648.24105502045
next            iter
jump            SELF loop_min
min_style       cg
fix             1 all box/relax aniso 0.0 vmax 0.01
minimize        1.0e-15 1.0e-15 10000 100000
Step Temp E_pair E_mol TotEng Press Volume
14823 1.4108411e-10    78.099738    1570.1413    1648.2411   -10457.447    1643.1218
Loop time of 0.0157367 on 1 procs for 14 steps with 124 atoms

Minimization stats:
  Stopping criterion = linesearch alpha is zero
  Energy initial, next-to-last, final =
  Force two-norm initial, final = 474.791 34.8624
  Force max component initial, final = 352.738 19.6819
  Final line search alpha, max atom move = 6.75312e-12 1.32914e-10
  Iterations, force evaluations = 14 79

unfix           1
min_style       fire
variable        tempstp    equal $(step)
variable        tempstp    equal 14837
variable        CellMinStep equal 14837
minimize        1.0e-15 1.0e-15 10000 100000
  Parameters for fire:
    dmax delaystep dtgrow dtshrink alpha0 alphashrink tmax tmin    integrator halfstepback
     0.1        20    1.1      0.5   0.25        0.99   10 0.02 eulerimplicit          yes
Step Temp E_pair E_mol TotEng Press
14837            0    91.821626    1553.7042    1645.5259   -170.26131
Loop time of 0.384075 on 1 procs for 3101 steps with 124 atoms

Minimization stats:
  Stopping criterion = energy tolerance
  Energy initial, next-to-last, final =
  Force two-norm initial, final = 27.9461 5.00643e-05
  Force max component initial, final = 8.55707 1.3433e-05
  Final line search alpha, max atom move = 0 0
  Iterations, force evaluations = 3101 3101

variable        AtomMinStep equal 14837
variable        temppe     equal $(pe)
variable        temppe     equal 1644.2869730951570091
variable        min_E      equal abs(1648.24105502045-1644.28697309516)
variable        prev_E     equal 1644.28697309516
next            iter
jump            SELF loop_min
min_style       cg
fix             1 all box/relax aniso 0.0 vmax 0.01
minimize        1.0e-15 1.0e-15 10000 100000
Step Temp E_pair E_mol TotEng Press Volume
17938 3.0509397e-10    86.882755    1557.4042     1644.287   -1750.4226    1614.6668
Loop time of 0.00954181 on 1 procs for 3 steps with 124 atoms

Minimization stats:
  Stopping criterion = linesearch alpha is zero
  Energy initial, next-to-last, final =
  Force two-norm initial, final = 199.406 18.496
  Force max component initial, final = 134.162 6.91844
  Final line search alpha, max atom move = 2.93281e-11 2.02905e-10
  Iterations, force evaluations = 3 57

unfix           1
min_style       fire
variable        tempstp    equal $(step)
variable        tempstp    equal 17941
variable        CellMinStep equal 17941
minimize        1.0e-15 1.0e-15 10000 100000
  Parameters for fire:
    dmax delaystep dtgrow dtshrink alpha0 alphashrink tmax tmin    integrator halfstepback
     0.1        20    1.1      0.5   0.25        0.99   10 0.02 eulerimplicit          yes
Step Temp E_pair E_mol TotEng Press
17941            0    88.808779    1555.3107    1644.1194   -163.43186
Loop time of 0.2831 on 1 procs for 2303 steps with 124 atoms

Minimization stats:
  Stopping criterion = energy tolerance
  Energy initial, next-to-last, final =
  Force two-norm initial, final = 16.1088 4.31383e-05
  Force max component initial, final = 2.43423 1.06158e-05
  Final line search alpha, max atom move = 0 0
  Iterations, force evaluations = 2303 2303

variable        AtomMinStep equal 17941
variable        temppe     equal $(pe)
variable        temppe     equal 1643.9162184436170264
variable        min_E      equal abs(1644.28697309516-1643.91621844362)
variable        prev_E     equal 1643.91621844362
next            iter
jump            SELF loop_min
min_style       cg
fix             1 all box/relax aniso 0.0 vmax 0.01
minimize        1.0e-15 1.0e-15 10000 100000
Step Temp E_pair E_mol TotEng Press Volume
20244 1.5804268e-10    87.823953    1556.0923    1643.9162   -1029.3063    1611.7531
Loop time of 0.00836907 on 1 procs for 2 steps with 124 atoms

Minimization stats:
  Stopping criterion = linesearch alpha is zero
  Energy initial, next-to-last, final =
  Force two-norm initial, final = 178.731 43.2708
  Force max component initial, final = 116.83 35.2305
  Final line search alpha, max atom move = 3.74508e-12 1.31941e-10
  Iterations, force evaluations = 2 55

unfix           1
min_style       fire
variable        tempstp    equal $(step)
variable        tempstp    equal 20246
variable        CellMinStep equal 20246
minimize        1.0e-15 1.0e-15 10000 100000
  Parameters for fire:
    dmax delaystep dtgrow dtshrink alpha0 alphashrink tmax tmin    integrator halfstepback
     0.1        20    1.1      0.5   0.25        0.99   10 0.02 eulerimplicit          yes
Step Temp E_pair E_mol TotEng Press
20246            0    88.709044    1555.0311    1643.7401    -281.8339
Loop time of 0.233694 on 1 procs for 1876 steps with 124 atoms

Minimization stats:
  Stopping criterion = energy tolerance
  Energy initial, next-to-last, final =
  Force two-norm initial, final = 13.8417 3.16314e-05
  Force max component initial, final = 2.17621 1.08445e-05
  Final line search alpha, max atom move = 0 0
  Iterations, force evaluations = 1876 1876

variable        AtomMinStep equal 20246
variable        temppe     equal $(pe)
variable        temppe     equal 1643.6160006342688575
variable        min_E      equal abs(1643.91621844362-1643.61600063427)
variable        prev_E     equal 1643.61600063427
next            iter
jump            SELF loop_min
min_style       cg
fix             1 all box/relax aniso 0.0 vmax 0.01
minimize        1.0e-15 1.0e-15 10000 100000
Step Temp E_pair E_mol TotEng Press Volume
22122 1.7206167e-10    88.283451    1555.3325     1643.616   -846.14532     1610.503
Loop time of 0.00912952 on 1 procs for 3 steps with 124 atoms

Minimization stats:
  Stopping criterion = linesearch alpha is zero
  Energy initial, next-to-last, final =
  Force two-norm initial, final = 161.265 13.9369
  Force max component initial, final = 108.575 2.62613
  Final line search alpha, max atom move = 5.50846e-11 1.4466e-10
  Iterations, force evaluations = 3 59

unfix           1
min_style       fire
variable        tempstp    equal $(step)
variable        tempstp    equal 22125
variable        CellMinStep equal 22125
minimize        1.0e-15 1.0e-15 10000 100000
  Parameters for fire:
    dmax delaystep dtgrow dtshrink alpha0 alphashrink tmax tmin    integrator halfstepback
     0.1        20    1.1      0.5   0.25        0.99   10 0.02 eulerimplicit          yes
Step Temp E_pair E_mol TotEng Press
22125            0    89.485922    1553.9369    1643.4228    5.2610744
Loop time of 0.274279 on 1 procs for 2203 steps with 124 atoms

Minimization stats:
  Stopping criterion = energy tolerance
  Energy initial, next-to-last, final =
  Force two-norm initial, final = 13.447 4.32979e-05
  Force max component initial, final = 2.13971 1.03213e-05
  Final line search alpha, max atom move = 0 0
  Iterations, force evaluations = 2203 2203

variable        AtomMinStep equal 22125
variable        temppe     equal $(pe)
variable        temppe     equal 1643.3026948153683406
variable        min_E      equal abs(1643.61600063427-1643.30269481537)
variable        prev_E     equal 1643.30269481537
next            iter
jump            SELF loop_min
min_style       cg
fix             1 all box/relax aniso 0.0 vmax 0.01
minimize        1.0e-15 1.0e-15 10000 100000
Step Temp E_pair E_mol TotEng Press Volume
24328 1.7799487e-10    88.815866    1554.4868    1643.3027    -418.8394    1608.5153
Loop time of 0.00912961 on 1 procs for 5 steps with 124 atoms

Minimization stats:
  Stopping criterion = linesearch alpha is zero
  Energy initial, next-to-last, final =
  Force two-norm initial, final = 148.144 19.1181
  Force max component initial, final = 110.28 4.18519
  Final line search alpha, max atom move = 2.51054e-11 1.05071e-10
  Iterations, force evaluations = 5 61

unfix           1
min_style       fire
variable        tempstp    equal $(step)
variable        tempstp    equal 24333
variable        CellMinStep equal 24333
minimize        1.0e-15 1.0e-15 10000 100000
  Parameters for fire:
    dmax delaystep dtgrow dtshrink alpha0 alphashrink tmax tmin    integrator halfstepback
     0.1        20    1.1      0.5   0.25        0.99   10 0.02 eulerimplicit          yes
Step Temp E_pair E_mol TotEng Press
24333            0    90.142861    1552.9604    1643.1032   -18.958525
Loop time of 0.278388 on 1 procs for 2180 steps with 124 atoms

Minimization stats:
  Stopping criterion = energy tolerance
  Energy initial, next-to-last, final =
  Force two-norm initial, final = 18.4959 4.57684e-05
  Force max component initial, final = 2.79907 1.12168e-05
  Final line search alpha, max atom move = 0 0
  Iterations, force evaluations = 2180 2180

variable        AtomMinStep equal 24333
variable        temppe     equal $(pe)
variable        temppe     equal 1642.922538501847157
variable        min_E      equal abs(1643.30269481537-1642.92253850185)
variable        prev_E     equal 1642.92253850185
next            iter
jump            SELF loop_min
min_style       cg
fix             1 all box/relax aniso 0.0 vmax 0.01
minimize        1.0e-15 1.0e-15 10000 100000
Step Temp E_pair E_mol TotEng Press Volume
26513 2.5382168e-10    89.286098    1553.6364    1642.9225   -114.55261    1606.5523
Loop time of 0.0092481 on 1 procs for 5 steps with 124 atoms

Minimization stats:
  Stopping criterion = linesearch alpha is zero
  Energy initial, next-to-last, final =
  Force two-norm initial, final = 131.326 18.1305
  Force max component initial, final = 104.467 4.77808
  Final line search alpha, max atom move = 2.66135e-11 1.27161e-10
  Iterations, force evaluations = 5 61

unfix           1
min_style       fire
variable        tempstp    equal $(step)
variable        tempstp    equal 26518
variable        CellMinStep equal 26518
minimize        1.0e-15 1.0e-15 10000 100000
  Parameters for fire:
    dmax delaystep dtgrow dtshrink alpha0 alphashrink tmax tmin    integrator halfstepback
     0.1        20    1.1      0.5   0.25        0.99   10 0.02 eulerimplicit          yes
Step Temp E_pair E_mol TotEng Press
26518            0     90.16294    1552.6009    1642.7638   -117.33969
Loop time of 0.261612 on 1 procs for 2093 steps with 124 atoms

Minimization stats:
  Stopping criterion = energy tolerance
  Energy initial, next-to-last, final =
  Force two-norm initial, final = 16.8347 4.78652e-05
  Force max component initial, final = 2.58912 1.22184e-05
  Final line search alpha, max atom move = 0 0
  Iterations, force evaluations = 2093 2093

variable        AtomMinStep equal 26518
variable        temppe     equal $(pe)
variable        temppe     equal 1642.6317387115816473
variable        min_E      equal abs(1642.92253850185-1642.63173871158)
variable        prev_E     equal 1642.63173871158
next            iter
jump            SELF loop_min
min_style       cg
fix             1 all box/relax aniso 0.0 vmax 0.01
minimize        1.0e-15 1.0e-15 10000 100000
Step Temp E_pair E_mol TotEng Press Volume
28611 2.1767691e-10     89.53633    1553.0954    1642.6317   -6.7060265    1605.2264
Loop time of 0.00790046 on 1 procs for 2 steps with 124 atoms

Minimization stats:
  Stopping criterion = linesearch alpha is zero
  Energy initial, next-to-last, final =
  Force two-norm initial, final = 116.815 32.3084
  Force max component initial, final = 95.0974 27.257
  Final line search alpha, max atom move = 9.51256e-12 2.59284e-10
  Iterations, force evaluations = 2 53

unfix           1
min_style       fire
variable        tempstp    equal $(step)
variable        tempstp    equal 28613
variable        CellMinStep equal 28613
minimize        1.0e-15 1.0e-15 10000 100000
  Parameters for fire:
    dmax delaystep dtgrow dtshrink alpha0 alphashrink tmax tmin    integrator halfstepback
     0.1        20    1.1      0.5   0.25        0.99   10 0.02 eulerimplicit          yes
Step Temp E_pair E_mol TotEng Press
28613            0    89.528873    1553.0257    1642.5546   -385.84357
Loop time of 0.225691 on 1 procs for 1812 steps with 124 atoms

Minimization stats:
  Stopping criterion = energy tolerance
  Energy initial, next-to-last, final =
  Force two-norm initial, final = 9.12777 4.61595e-05
  Force max component initial, final = 1.65223 9.72465e-06
  Final line search alpha, max atom move = 0 0
  Iterations, force evaluations = 1812 1812

variable        AtomMinStep equal 28613
variable        temppe     equal $(pe)
variable        temppe     equal 1642.4432426475666489
variable        min_E      equal abs(1642.63173871158-1642.44324264757)
variable        prev_E     equal 1642.44324264757
next            iter
jump            SELF loop_min
min_style       cg
fix             1 all box/relax aniso 0.0 vmax 0.01
minimize        1.0e-15 1.0e-15 10000 100000
Step Temp E_pair E_mol TotEng Press Volume
30425 1.7928453e-10    89.456739    1552.9865    1642.4432   -204.42428    1605.2169
Loop time of 0.00982049 on 1 procs for 7 steps with 124 atoms

Minimization stats:
  Stopping criterion = linesearch alpha is zero
  Energy initial, next-to-last, final =
  Force two-norm initial, final = 105.698 11.0861
  Force max component initial, final = 80.7065 4.31092
  Final line search alpha, max atom move = 8.60297e-11 3.70867e-10
  Iterations, force evaluations = 7 63

unfix           1
min_style       fire
variable        tempstp    equal $(step)
variable        tempstp    equal 30432
variable        CellMinStep equal 30432
minimize        1.0e-15 1.0e-15 10000 100000
  Parameters for fire:
    dmax delaystep dtgrow dtshrink alpha0 alphashrink tmax tmin    integrator halfstepback
     0.1        20    1.1      0.5   0.25        0.99   10 0.02 eulerimplicit          yes
Step Temp E_pair E_mol TotEng Press
30432            0    90.415625    1551.9258    1642.3414   -63.136375
Loop time of 0.290072 on 1 procs for 2289 steps with 124 atoms

Minimization stats:
  Stopping criterion = energy tolerance
  Energy initial, next-to-last, final =
  Force two-norm initial, final = 9.88939 5.00029e-05
  Force max component initial, final = 1.39948 1.02964e-05
  Final line search alpha, max atom move = 0 0
  Iterations, force evaluations = 2289 2289

variable        AtomMinStep equal 30432
variable        temppe     equal $(pe)
variable        temppe     equal 1642.1877086584181598
variable        min_E      equal abs(1642.44324264757-1642.18770865842)
variable        prev_E     equal 1642.18770865842
next            iter
jump            SELF loop_min
min_style       cg
fix             1 all box/relax aniso 0.0 vmax 0.01
minimize        1.0e-15 1.0e-15 10000 100000
Step Temp E_pair E_mol TotEng Press Volume
32721 2.5457427e-10    89.722689     1552.465    1642.1877   -10.715716     1603.632
Loop time of 0.0083228 on 1 procs for 2 steps with 124 atoms

Minimization stats:
  Stopping criterion = linesearch alpha is zero
  Energy initial, next-to-last, final =
  Force two-norm initial, final = 93.663 30.0949
  Force max component initial, final = 75.4078 24.635
  Final line search alpha, max atom move = 1.00734e-11 2.48157e-10
  Iterations, force evaluations = 2 53

unfix           1
min_style       fire
variable        tempstp    equal $(step)
variable        tempstp    equal 32723
variable        CellMinStep equal 32723
minimize        1.0e-15 1.0e-15 10000 100000
  Parameters for fire:
    dmax delaystep dtgrow dtshrink alpha0 alphashrink tmax tmin    integrator halfstepback
     0.1        20    1.1      0.5   0.25        0.99   10 0.02 eulerimplicit          yes
Step Temp E_pair E_mol TotEng Press
32723            0    89.733716    1552.4313     1642.165   -376.75044
Loop time of 0.207558 on 1 procs for 1630 steps with 124 atoms

Minimization stats:
  Stopping criterion = energy tolerance
  Energy initial, next-to-last, final =
  Force two-norm initial, final = 7.55586 4.10155e-05
  Force max component initial, final = 1.38468 8.35258e-06
  Final line search alpha, max atom move = 0 0
  Iterations, force evaluations = 1630 1630

variable        AtomMinStep equal 32723
variable        temppe     equal $(pe)
variable        temppe     equal 1642.0956383920924964
variable        min_E      equal abs(1642.18770865842-1642.09563839209)
variable        prev_E     equal 1642.09563839209
next            iter
jump            SELF loop_min
min_style       cg
fix             1 all box/relax aniso 0.0 vmax 0.01
minimize        1.0e-15 1.0e-15 10000 100000
Step Temp E_pair E_mol TotEng Press Volume
34353 1.6612972e-10    89.682124    1552.4135    1642.0956   -177.06669    1603.6172
Loop time of 0.00869837 on 1 procs for 1 steps with 124 atoms

Minimization stats:
  Stopping criterion = linesearch alpha is zero
  Energy initial, next-to-last, final =
  Force two-norm initial, final = 85.3344 85.3344
  Force max component initial, final = 63.7435 63.7435
  Final line search alpha, max atom move = 1.16884e-12 7.45058e-11
  Iterations, force evaluations = 1 55

unfix           1
min_style       fire
variable        tempstp    equal $(step)
variable        tempstp    equal 34354
variable        CellMinStep equal 34354
minimize        1.0e-15 1.0e-15 10000 100000
  Parameters for fire:
    dmax delaystep dtgrow dtshrink alpha0 alphashrink tmax tmin    integrator halfstepback
     0.1        20    1.1      0.5   0.25        0.99   10 0.02 eulerimplicit          yes
Step Temp E_pair E_mol TotEng Press
34354            0    89.682124    1552.4135    1642.0956   -177.06669
Loop time of 0.00776274 on 1 procs for 54 steps with 124 atoms

Minimization stats:
  Stopping criterion = energy tolerance
  Energy initial, next-to-last, final =
  Force two-norm initial, final = 4.10155e-05 3.39188e-05
  Force max component initial, final = 8.35258e-06 7.09556e-06
  Final line search alpha, max atom move = 0 0
  Iterations, force evaluations = 54 54

variable        AtomMinStep equal 34354
variable        temppe     equal $(pe)
variable        temppe     equal 1642.0956383919688051
variable        min_E      equal abs(1642.09563839209-1642.09563839197)
jump SELF break_min
undump          NiPyC2_relax_sc211_ortho_functionalized_PH2_xyzmov

# Dump last snapshot for restart
variable curr_lx equal lx
variable curr_ly equal ly
variable curr_lz equal lz
change_box all x final 0 15.0849714814024 y final 0 9.81150681035597 z final 0 10.8347904012673
  triclinic box = (0 1.35595 -0.280256) to (15.085 11.1675 10.5545) with tilt (0 -0.24001 0)
  triclinic box = (0 0 -0.280256) to (15.085 9.81151 10.5545) with tilt (0 -0.24001 0)
  triclinic box = (0 0 0) to (15.085 9.81151 10.8348) with tilt (0 -0.24001 0)

reset_timestep 0
dump            NiPyC2_relax_sc211_ortho_functionalized_PH2_restart all atom 1 NiPyC2_relax_sc211_ortho_functionalized_PH2_restart.lammpstrj
dump_modify     NiPyC2_relax_sc211_ortho_functionalized_PH2_restart scale no sort id
run 0
Step Temp E_pair E_mol TotEng Press
0 1.0123367e-10    89.682124    1552.4135    1642.0956     -177.065
Loop time of 8.21019e-07 on 1 procs for 0 steps with 124 atoms

undump          NiPyC2_relax_sc211_ortho_functionalized_PH2_restart
