#======================================================================

# CRYSTAL DATA

#----------------------------------------------------------------------

data_VESTA_phase_1


_chemical_name_common                  'XCrySDen XSF file'
_cell_length_a                         6.79846
_cell_length_b                         10.76141
_cell_length_c                         11.18834
_cell_angle_alpha                      90
_cell_angle_beta                       91.37082
_cell_angle_gamma                      90
_space_group_name_H-M_alt              'P 1'
_space_group_IT_number                 1

loop_
_space_group_symop_operation_xyz
   'x, y, z'

loop_
   _atom_site_label
   _atom_site_occupancy
   _atom_site_fract_x
   _atom_site_fract_y
   _atom_site_fract_z
   _atom_site_adp_type
   _atom_site_B_iso_or_equiv
   _atom_site_type_symbol
   Ni1        1.0     0.494394      0.753640      0.835964     Biso  1.000000 Ni
   Ni2        1.0     1.000638      0.245480      0.339573     Biso  1.000000 Ni
   O1         1.0     0.223193      0.356377      0.377951     Biso  1.000000 O
   O2         1.0     0.724295      0.643663      0.875199     Biso  1.000000 O
   O3         1.0     0.775188      0.132093      0.366528     Biso  1.000000 O
   O4         1.0     0.270539      0.866605      0.868183     Biso  1.000000 O
   O5         1.0     0.942398      0.368506      0.466691     Biso  1.000000 O
   O6         1.0     0.445041      0.628961      0.964342     Biso  1.000000 O
   O7         1.0     0.054991      0.115997      0.463143     Biso  1.000000 O
   O8         1.0     0.553769      0.882169      0.960933     Biso  1.000000 O
   N1         1.0     0.609340      0.859220      0.713966     Biso  1.000000 N
   N2         1.0     0.116037      0.140503      0.216709     Biso  1.000000 N
   N3         1.0     0.380276      0.644396      0.716223     Biso  1.000000 N
   N4         1.0     0.886373      0.356492      0.217779     Biso  1.000000 N
   C1         1.0     0.582120      0.975012      0.532636     Biso  1.000000 C
   C2         1.0     0.084363      0.024694      0.035506     Biso  1.000000 C
   H1         1.0     0.490366      1.011831      0.460177     Biso  1.000000 H
   H2         1.0    -0.009327     -0.011600      0.963693     Biso  1.000000 H
   C3         1.0     0.784452      0.999467      0.540557     Biso  1.000000 C
   C4         1.0     0.286625     -0.000280      0.041690     Biso  1.000000 C
   C5         1.0     0.898400      0.952237      0.635756     Biso  1.000000 C
   C6         1.0     0.402939      0.047233      0.135744     Biso  1.000000 C
   H3         1.0     0.055332      0.970603      0.644986     Biso  1.000000 H
   H4         1.0     0.560112      0.029159      0.143552     Biso  1.000000 H
   C7         1.0     0.407941      0.520841      0.541178     Biso  1.000000 C
   C8         1.0     0.914561      0.480360      0.042147     Biso  1.000000 C
   H5         1.0     0.498134      0.482258      0.471539     Biso  1.000000 H
   H6         1.0     1.006312      0.518378      0.972910     Biso  1.000000 H
   C9         1.0     0.491340      0.597932      0.628523     Biso  1.000000 C
   C10        1.0     0.997355      0.403347      0.130221     Biso  1.000000 C
   H7         1.0     0.646648      0.623149      0.630133     Biso  1.000000 H
   H8         1.0     0.152816      0.378457      0.132091     Biso  1.000000 H
   C11        1.0     0.498161      0.903609      0.622156     Biso  1.000000 C
   C12        1.0     0.002765      0.096050      0.125873     Biso  1.000000 C
   H9         1.0     0.341651      0.881421      0.622089     Biso  1.000000 H
   H10        1.0     0.846430      0.118160      0.127295     Biso  1.000000 H
   C13        1.0     0.804767      0.881084      0.721817     Biso  1.000000 C
   C14        1.0     0.311528      0.118649      0.222607     Biso  1.000000 C
   H11        1.0     0.884112      0.840512      0.797913     Biso  1.000000 H
   H12        1.0     0.393032      0.159347      0.297836     Biso  1.000000 H
   C15        1.0     0.186076      0.619955      0.721873     Biso  1.000000 C
   C16        1.0     0.692146      0.381359      0.222307     Biso  1.000000 C
   H13        1.0     0.107560      0.663137      0.794694     Biso  1.000000 H
   H14        1.0     0.612559      0.338513      0.294844     Biso  1.000000 H
   C17        1.0     0.093315      0.542831      0.637737     Biso  1.000000 C
   C18        1.0     0.599836      0.458270      0.137501     Biso  1.000000 C
   H15        1.0     0.937392      0.522384      0.644679     Biso  1.000000 H
   H16        1.0     0.443643      0.478144      0.143880     Biso  1.000000 H
   C19        1.0     0.207411      0.492992      0.547307     Biso  1.000000 C
   C20        1.0     0.713671      0.508112      0.046801     Biso  1.000000 C
   C21        1.0     0.873974      0.081917      0.453858     Biso  1.000000 C
   C22        1.0     0.372922      0.916651      0.954182     Biso  1.000000 C
   C23        1.0     0.121460      0.405840      0.461679     Biso  1.000000 C
   C24        1.0     0.625427      0.593879      0.959708     Biso  1.000000 C
