#======================================================================

# CRYSTAL DATA

#----------------------------------------------------------------------
# arguements manually changed for use with PorousMaterials.jl:
# _space_group_name_H-M_alt 'P 1' -> _symmetry_space_group_name_H-M 'P1'
# _space_group_symop_operation_xyz -> _symmetry_equiv_pos_as_xyz

data_VESTA_phase_1


_chemical_name_common                  'XCrySDen XSF file'
_cell_length_a                         6.25280
_cell_length_b                         12.52340
_cell_length_c                         10.27680
_cell_angle_alpha                      90
_cell_angle_beta                       91.26900
_cell_angle_gamma                      90
_symmetry_space_group_name_H-M        'P1'
_space_group_IT_number                 1

loop_
_symmetry_equiv_pos_as_xyz
   'x, y, z'

loop_
   _atom_site_label
   _atom_site_occupancy
   _atom_site_fract_x
   _atom_site_fract_y
   _atom_site_fract_z
   _atom_site_adp_type
   _atom_site_B_iso_or_equiv
   _atom_site_type_symbol
   Ni1        1.0     0.494004      0.751486      0.836326     Biso  1.000000 Ni
   Ni2        1.0     0.999945      0.247999      0.339178     Biso  1.000000 Ni
   O1         1.0     0.245557      0.347689      0.382873     Biso  1.000000 O
   O2         1.0     0.742416      0.650977      0.881292     Biso  1.000000 O
   O3         1.0     0.755261      0.147507      0.377178     Biso  1.000000 O
   O4         1.0     0.250196      0.852352      0.876261     Biso  1.000000 O
   O5         1.0     0.946138      0.356160      0.482994     Biso  1.000000 O
   O6         1.0     0.442275      0.641415      0.979877     Biso  1.000000 O
   O7         1.0     0.057679      0.135158      0.481078     Biso  1.000000 O
   O8         1.0     0.553372      0.862758      0.979399     Biso  1.000000 O
   N1         1.0     0.616875      0.851253      0.704828     Biso  1.000000 N
   N2         1.0     0.121459      0.148857      0.206052     Biso  1.000000 N
   N3         1.0     0.373085      0.650310      0.705838     Biso  1.000000 N
   N4         1.0     0.877620      0.350928      0.208041     Biso  1.000000 N
   C1         1.0     0.576425      0.970050      0.521984     Biso  1.000000 C
   C2         1.0     0.076758      0.031106      0.022308     Biso  1.000000 C
   H1         1.0     0.474249      0.999575      0.443113     Biso  1.000000 H
   H2         1.0    -0.026924      0.002692      0.943499     Biso  1.000000 H
   C3         1.0     0.781269      1.011770      0.546492     Biso  1.000000 C
   C4         1.0     0.280489     -0.012256      0.046146     Biso  1.000000 C
   C5         1.0     0.903830      0.970202      0.650371     Biso  1.000000 C
   C6         1.0     0.405041      0.028353      0.149893     Biso  1.000000 C
   H3         1.0     0.064125      0.998805      0.673520     Biso  1.000000 H
   H4         1.0     0.564681     -0.001335      0.172602     Biso  1.000000 H
   C7         1.0     0.416363      0.529704      0.526384     Biso  1.000000 C
   C8         1.0     0.917091      0.471409      0.027904     Biso  1.000000 C
   H5         1.0     0.517401      0.500895      0.449282     Biso  1.000000 H
   H6         1.0     1.017282      0.500397      0.950548     Biso  1.000000 H
   C9         1.0     0.490274      0.613331      0.606435     Biso  1.000000 C
   C10        1.0     0.993638      0.388677      0.108617     Biso  1.000000 C
   H7         1.0     0.645282      0.650506      0.592635     Biso  1.000000 H
   H8         1.0     0.149937      0.352851      0.095028     Biso  1.000000 H
   C11        1.0     0.498952      0.889206      0.603203     Biso  1.000000 C
   C12        1.0     0.002139      0.112232      0.104247     Biso  1.000000 C
   H9         1.0     0.340308      0.855123      0.588560     Biso  1.000000 H
   H10        1.0     0.844645      0.147732      0.089886     Biso  1.000000 H
   C13        1.0     0.815954      0.889383      0.727552     Biso  1.000000 C
   C14        1.0     0.319869      0.109547      0.227812     Biso  1.000000 C
   H11        1.0     0.906740      0.855173      0.808761     Biso  1.000000 H
   H12        1.0     0.412479      0.143103      0.308797     Biso  1.000000 H
   C15        1.0     0.177724      0.608983      0.727352     Biso  1.000000 C
   C16        1.0     0.681780      0.391633      0.229394     Biso  1.000000 C
   H13        1.0     0.087458      0.642944      0.806608     Biso  1.000000 H
   H14        1.0     0.592757      0.357526      0.309051     Biso  1.000000 H
   C17        1.0     0.093850      0.525079      0.651312     Biso  1.000000 C
   C18        1.0     0.595316      0.474711      0.152754     Biso  1.000000 C
   H15        1.0     0.937343      0.493231      0.673502     Biso  1.000000 H
   H16        1.0     0.437905      0.505201      0.175264     Biso  1.000000 H
   C19        1.0     0.216328      0.484270      0.550116     Biso  1.000000 C
   C20        1.0     0.715665      0.515656      0.050638     Biso  1.000000 C
   C21        1.0     0.866619      0.099319      0.466621     Biso  1.000000 C
   C22        1.0     0.363035      0.899720      0.965672     Biso  1.000000 C
   C23        1.0     0.134755      0.394474      0.470676     Biso  1.000000 C
   C24        1.0     0.632086      0.604172      0.969107     Biso  1.000000 C
