
data_
_chemical_name_mineral ?hkl_Phase?
_cell_length_a 10.6166(7)
_cell_length_b 11.8787(9)
_cell_length_c 7.0918(3)
_cell_angle_alpha 90
_cell_angle_beta 90.023(5)
_cell_angle_gamma 90
_cell_volume 894.35(10)
_symmetry_space_group_name_H-M P21/n

loop_
_symmetry_equiv_pos_as_xyz
'x, y, z '
'-x+1/2, y+1/2, -z+1/2 '
'-x, -y, -z '
'x+1/2, -y+1/2, z+1/2 '

loop_
_atom_site_label
_atom_site_type_symbol
_atom_site_symmetry_multiplicity
_atom_site_fract_x
_atom_site_fract_y
_atom_site_fract_z
_atom_site_occupancy
_atom_site_B_iso_or_equiv
Ni1 Ni   2 0 0 0.5 1 1.18(14)
O011 O   4 0.457(8) 0.591(7) 0.8270(16) 1 3.0(2)
O021 O   4 0.346(8) 0.582(4) 1.0848(14) 1 3.0(2)
C031 C   4 0.2933(13) 0.763(2) 0.6720(9) 1 3.0(2)
C041 C   4 0.1925(7) 0.7727(13) 0.9760(9) 1 3.0(2)
C051 C   4 0.122(3) 0.866(3) 0.9065(10) 1 3.0(2)
H061 H   4 0.058(5) 0.911(5) 0.9994(13) 1 3.0(2)
H071 H   4 0.0910(8) 0.768(4) 1.2205(11) 1 3.0(2)
N081 N   4 0.129(4) 0.899(3) 0.7276(11) 1 3.0(2)
N091 N   4 0.1670(19) 0.735(2) 1.1488(10) 1 3.0(2)
C101 C   4 0.285(3) 0.7224(18) 0.8558(10) 1 3.0(2)
H111 H   4 0.215(5) 0.6643(9) 1.1923(11) 1 3.0(2)
C121 C   4 0.363(6) 0.630(4) 0.9234(13) 1 3.0(2)
C131 C   4 0.214(2) 0.8500(9) 0.6105(9) 1 3.0(2)
H141 H   4 0.215(3) 0.8806(10) 0.4662(10) 1 3.0(2)
H151 H   4 0.357(3) 0.726(4) 0.5705(11) 1 3.0(2)
