data_Pn_Ni-PyC-NH2_PM
_symmetry_space_group_name_H-M    'P1'
_cell_length_a    21.236000
_cell_length_b    23.757200
_cell_length_c    14.183600
_cell_angle_alpha    90.000000
_cell_angle_beta    89.972000
_cell_angle_gamma    90.000000
_symmetry_Int_Tables_number 1

loop_
_symmetry_equiv_pos_as_xyz
'x,y,z'

loop_
_atom_site_label
_atom_site_type_symbol
_atom_site_fract_x
_atom_site_fract_y
_atom_site_fract_z
Ni1    Ni    0.249350    0.124250    0.022950
O1    O    0.015000    0.435000    0.384500
O2    O    0.065000    0.430000    0.252200
C1    C    0.104500    0.010000    0.467900
C2    C    0.151500    0.019000    0.313850
C3    C    0.190000    0.060000    0.352300
H1    H    0.225000    0.085000    0.306950
H2    H    0.199000    0.020000    0.188600
N1    N    0.190000    0.075000    0.443800
N2    N    0.160500    0.003500    0.224550
C4    C    0.105000    0.494000    0.373400
H3    H    0.135000    0.471000    0.199850
C5    C    0.060000    0.450000    0.336200
C6    C    0.148500    0.049500    0.001600
H4    H    0.150000    0.061000    0.075550
H5    H    0.070000    0.490000    0.018050
O3    O    0.278000    0.170950    0.420950
O4    O    0.328200    0.186950    0.052050
C7    C    0.344400    0.260950    0.325550
C8    C    0.410800    0.268050    0.462800
C9    C    0.447750    0.307700    0.411950
H6    H    0.490400    0.324900    0.443200
H7    H    0.460300    0.281800    0.084050
N3    N    0.431300    0.326350    0.326850
N4    N    0.425700    0.257700    0.052450
C10    C    0.358500    0.242400    0.416400
H8    H    0.396450    0.230700    0.088800
C11    C    0.320600    0.199600    0.464250
C12    C    0.380600    0.303250    0.283050
H9    H    0.369300    0.320000    0.213800
H10    H    0.303650    0.245050    0.287650
Ni2    Ni    0.499350    0.375750    0.272950
O5    O    0.265000    0.065000    0.134500
O6    O    0.315000    0.070000    0.002200
C13    C    0.354500    0.490000    0.217900
C14    C    0.401500    0.481000    0.063850
C15    C    0.440000    0.440000    0.102300
H11    H    0.475000    0.415000    0.056950
H12    H    0.449000    0.480000    0.438600
N5    N    0.440000    0.425000    0.193800
N6    N    0.410500    0.496500    0.474550
C16    C    0.355000    0.006000    0.123400
H13    H    0.385000    0.029000    0.449850
C17    C    0.310000    0.050000    0.086200
C18    C    0.398500    0.450500    0.251600
H14    H    0.400000    0.439000    0.325550
H15    H    0.320000    0.010000    0.268050
O7    O    0.028000    0.329050    0.170950
O8    O    0.078200    0.313050    0.302050
C19    C    0.094400    0.239050    0.075550
C20    C    0.160800    0.231950    0.212800
C21    C    0.197750    0.192300    0.161950
H16    H    0.240400    0.175100    0.193200
H17    H    0.210300    0.218200    0.334050
N7    N    0.181300    0.173650    0.076850
N8    N    0.175700    0.242300    0.302450
C22    C    0.108500    0.257600    0.166400
H18    H    0.146450    0.269300    0.338800
C23    C    0.070600    0.300400    0.214250
C24    C    0.130600    0.196750    0.033050
H19    H    0.119300    0.180000    0.463800
H20    H    0.053650    0.254950    0.037650
Ni3    Ni    0.249350    0.124250    0.522950
O9    O    0.015000    0.435000    0.884500
O10    O    0.065000    0.430000    0.752200
C25    C    0.104500    0.010000    0.967900
C26    C    0.151500    0.019000    0.813850
C27    C    0.190000    0.060000    0.852300
H21    H    0.225000    0.085000    0.806950
H22    H    0.199000    0.020000    0.688600
N9    N    0.190000    0.075000    0.943800
N10    N    0.160500    0.003500    0.724550
C28    C    0.105000    0.494000    0.873400
H23    H    0.135000    0.471000    0.699850
C29    C    0.060000    0.450000    0.836200
C30    C    0.148500    0.049500    0.501600
H24    H    0.150000    0.061000    0.575550
H25    H    0.070000    0.490000    0.518050
O11    O    0.278000    0.170950    0.920950
O12    O    0.328200    0.186950    0.552050
C31    C    0.344400    0.260950    0.825550
C32    C    0.410800    0.268050    0.962800
C33    C    0.447750    0.307700    0.911950
H26    H    0.490400    0.324900    0.943200
H27    H    0.460300    0.281800    0.584050
N11    N    0.431300    0.326350    0.826850
N12    N    0.425700    0.257700    0.552450
C34    C    0.358500    0.242400    0.916400
H28    H    0.396450    0.230700    0.588800
C35    C    0.320600    0.199600    0.964250
C36    C    0.380600    0.303250    0.783050
H29    H    0.369300    0.320000    0.713800
H30    H    0.303650    0.245050    0.787650
Ni4    Ni    0.499350    0.375750    0.772950
O13    O    0.265000    0.065000    0.634500
O14    O    0.315000    0.070000    0.502200
C37    C    0.354500    0.490000    0.717900
C38    C    0.401500    0.481000    0.563850
C39    C    0.440000    0.440000    0.602300
H31    H    0.475000    0.415000    0.556950
H32    H    0.449000    0.480000    0.938600
N13    N    0.440000    0.425000    0.693800
N14    N    0.410500    0.496500    0.974550
C40    C    0.355000    0.006000    0.623400
H33    H    0.385000    0.029000    0.949850
C41    C    0.310000    0.050000    0.586200
C42    C    0.398500    0.450500    0.751600
H34    H    0.400000    0.439000    0.825550
H35    H    0.320000    0.010000    0.768050
O15    O    0.028000    0.329050    0.670950
O16    O    0.078200    0.313050    0.802050
C43    C    0.094400    0.239050    0.575550
C44    C    0.160800    0.231950    0.712800
C45    C    0.197750    0.192300    0.661950
H36    H    0.240400    0.175100    0.693200
H37    H    0.210300    0.218200    0.834050
N15    N    0.181300    0.173650    0.576850
N16    N    0.175700    0.242300    0.802450
C46    C    0.108500    0.257600    0.666400
H38    H    0.146450    0.269300    0.838800
C47    C    0.070600    0.300400    0.714250
C48    C    0.130600    0.196750    0.533050
H39    H    0.119300    0.180000    0.963800
H40    H    0.053650    0.254950    0.537650
Ni5    Ni    0.249350    0.624250    0.022950
O17    O    0.015000    0.935000    0.384500
O18    O    0.065000    0.930000    0.252200
C49    C    0.104500    0.510000    0.467900
C50    C    0.151500    0.519000    0.313850
C51    C    0.190000    0.560000    0.352300
H41    H    0.225000    0.585000    0.306950
H42    H    0.199000    0.520000    0.188600
N17    N    0.190000    0.575000    0.443800
N18    N    0.160500    0.503500    0.224550
C52    C    0.105000    0.994000    0.373400
H43    H    0.135000    0.971000    0.199850
C53    C    0.060000    0.950000    0.336200
C54    C    0.148500    0.549500    0.001600
H44    H    0.150000    0.561000    0.075550
H45    H    0.070000    0.990000    0.018050
O19    O    0.278000    0.670950    0.420950
O20    O    0.328200    0.686950    0.052050
C55    C    0.344400    0.760950    0.325550
C56    C    0.410800    0.768050    0.462800
C57    C    0.447750    0.807700    0.411950
H46    H    0.490400    0.824900    0.443200
H47    H    0.460300    0.781800    0.084050
N19    N    0.431300    0.826350    0.326850
N20    N    0.425700    0.757700    0.052450
C58    C    0.358500    0.742400    0.416400
H48    H    0.396450    0.730700    0.088800
C59    C    0.320600    0.699600    0.464250
C60    C    0.380600    0.803250    0.283050
H49    H    0.369300    0.820000    0.213800
H50    H    0.303650    0.745050    0.287650
Ni6    Ni    0.499350    0.875750    0.272950
O21    O    0.265000    0.565000    0.134500
O22    O    0.315000    0.570000    0.002200
C61    C    0.354500    0.990000    0.217900
C62    C    0.401500    0.981000    0.063850
C63    C    0.440000    0.940000    0.102300
H51    H    0.475000    0.915000    0.056950
H52    H    0.449000    0.980000    0.438600
N21    N    0.440000    0.925000    0.193800
N22    N    0.410500    0.996500    0.474550
C64    C    0.355000    0.506000    0.123400
H53    H    0.385000    0.529000    0.449850
C65    C    0.310000    0.550000    0.086200
C66    C    0.398500    0.950500    0.251600
H54    H    0.400000    0.939000    0.325550
H55    H    0.320000    0.510000    0.268050
O23    O    0.028000    0.829050    0.170950
O24    O    0.078200    0.813050    0.302050
C67    C    0.094400    0.739050    0.075550
C68    C    0.160800    0.731950    0.212800
C69    C    0.197750    0.692300    0.161950
H56    H    0.240400    0.675100    0.193200
H57    H    0.210300    0.718200    0.334050
N23    N    0.181300    0.673650    0.076850
N24    N    0.175700    0.742300    0.302450
C70    C    0.108500    0.757600    0.166400
H58    H    0.146450    0.769300    0.338800
C71    C    0.070600    0.800400    0.214250
C72    C    0.130600    0.696750    0.033050
H59    H    0.119300    0.680000    0.463800
H60    H    0.053650    0.754950    0.037650
Ni7    Ni    0.249350    0.624250    0.522950
O25    O    0.015000    0.935000    0.884500
O26    O    0.065000    0.930000    0.752200
C73    C    0.104500    0.510000    0.967900
C74    C    0.151500    0.519000    0.813850
C75    C    0.190000    0.560000    0.852300
H61    H    0.225000    0.585000    0.806950
H62    H    0.199000    0.520000    0.688600
N25    N    0.190000    0.575000    0.943800
N26    N    0.160500    0.503500    0.724550
C76    C    0.105000    0.994000    0.873400
H63    H    0.135000    0.971000    0.699850
C77    C    0.060000    0.950000    0.836200
C78    C    0.148500    0.549500    0.501600
H64    H    0.150000    0.561000    0.575550
H65    H    0.070000    0.990000    0.518050
O27    O    0.278000    0.670950    0.920950
O28    O    0.328200    0.686950    0.552050
C79    C    0.344400    0.760950    0.825550
C80    C    0.410800    0.768050    0.962800
C81    C    0.447750    0.807700    0.911950
H66    H    0.490400    0.824900    0.943200
H67    H    0.460300    0.781800    0.584050
N27    N    0.431300    0.826350    0.826850
N28    N    0.425700    0.757700    0.552450
C82    C    0.358500    0.742400    0.916400
H68    H    0.396450    0.730700    0.588800
C83    C    0.320600    0.699600    0.964250
C84    C    0.380600    0.803250    0.783050
H69    H    0.369300    0.820000    0.713800
H70    H    0.303650    0.745050    0.787650
Ni8    Ni    0.499350    0.875750    0.772950
O29    O    0.265000    0.565000    0.634500
O30    O    0.315000    0.570000    0.502200
C85    C    0.354500    0.990000    0.717900
C86    C    0.401500    0.981000    0.563850
C87    C    0.440000    0.940000    0.602300
H71    H    0.475000    0.915000    0.556950
H72    H    0.449000    0.980000    0.938600
N29    N    0.440000    0.925000    0.693800
N30    N    0.410500    0.996500    0.974550
C88    C    0.355000    0.506000    0.623400
H73    H    0.385000    0.529000    0.949850
C89    C    0.310000    0.550000    0.586200
C90    C    0.398500    0.950500    0.751600
H74    H    0.400000    0.939000    0.825550
H75    H    0.320000    0.510000    0.768050
O31    O    0.028000    0.829050    0.670950
O32    O    0.078200    0.813050    0.802050
C91    C    0.094400    0.739050    0.575550
C92    C    0.160800    0.731950    0.712800
C93    C    0.197750    0.692300    0.661950
H76    H    0.240400    0.675100    0.693200
H77    H    0.210300    0.718200    0.834050
N31    N    0.181300    0.673650    0.576850
N32    N    0.175700    0.742300    0.802450
C94    C    0.108500    0.757600    0.666400
H78    H    0.146450    0.769300    0.838800
C95    C    0.070600    0.800400    0.714250
C96    C    0.130600    0.696750    0.533050
H79    H    0.119300    0.680000    0.963800
H80    H    0.053650    0.754950    0.537650
Ni9    Ni    0.749350    0.124250    0.022950
O33    O    0.515000    0.435000    0.384500
O34    O    0.565000    0.430000    0.252200
C97    C    0.604500    0.010000    0.467900
C98    C    0.651500    0.019000    0.313850
C99    C    0.690000    0.060000    0.352300
H81    H    0.725000    0.085000    0.306950
H82    H    0.699000    0.020000    0.188600
N33    N    0.690000    0.075000    0.443800
N34    N    0.660500    0.003500    0.224550
C100    C    0.605000    0.494000    0.373400
H83    H    0.635000    0.471000    0.199850
C101    C    0.560000    0.450000    0.336200
C102    C    0.648500    0.049500    0.001600
H84    H    0.650000    0.061000    0.075550
H85    H    0.570000    0.490000    0.018050
O35    O    0.778000    0.170950    0.420950
O36    O    0.828200    0.186950    0.052050
C103    C    0.844400    0.260950    0.325550
C104    C    0.910800    0.268050    0.462800
C105    C    0.947750    0.307700    0.411950
H86    H    0.990400    0.324900    0.443200
H87    H    0.960300    0.281800    0.084050
N35    N    0.931300    0.326350    0.326850
N36    N    0.925700    0.257700    0.052450
C106    C    0.858500    0.242400    0.416400
H88    H    0.896450    0.230700    0.088800
C107    C    0.820600    0.199600    0.464250
C108    C    0.880600    0.303250    0.283050
H89    H    0.869300    0.320000    0.213800
H90    H    0.803650    0.245050    0.287650
Ni10    Ni    0.999350    0.375750    0.272950
O37    O    0.765000    0.065000    0.134500
O38    O    0.815000    0.070000    0.002200
C109    C    0.854500    0.490000    0.217900
C110    C    0.901500    0.481000    0.063850
C111    C    0.940000    0.440000    0.102300
H91    H    0.975000    0.415000    0.056950
H92    H    0.949000    0.480000    0.438600
N37    N    0.940000    0.425000    0.193800
N38    N    0.910500    0.496500    0.474550
C112    C    0.855000    0.006000    0.123400
H93    H    0.885000    0.029000    0.449850
C113    C    0.810000    0.050000    0.086200
C114    C    0.898500    0.450500    0.251600
H94    H    0.900000    0.439000    0.325550
H95    H    0.820000    0.010000    0.268050
O39    O    0.528000    0.329050    0.170950
O40    O    0.578200    0.313050    0.302050
C115    C    0.594400    0.239050    0.075550
C116    C    0.660800    0.231950    0.212800
C117    C    0.697750    0.192300    0.161950
H96    H    0.740400    0.175100    0.193200
H97    H    0.710300    0.218200    0.334050
N39    N    0.681300    0.173650    0.076850
N40    N    0.675700    0.242300    0.302450
C118    C    0.608500    0.257600    0.166400
H98    H    0.646450    0.269300    0.338800
C119    C    0.570600    0.300400    0.214250
C120    C    0.630600    0.196750    0.033050
H99    H    0.619300    0.180000    0.463800
H100    H    0.553650    0.254950    0.037650
Ni11    Ni    0.749350    0.124250    0.522950
O41    O    0.515000    0.435000    0.884500
O42    O    0.565000    0.430000    0.752200
C121    C    0.604500    0.010000    0.967900
C122    C    0.651500    0.019000    0.813850
C123    C    0.690000    0.060000    0.852300
H101    H    0.725000    0.085000    0.806950
H102    H    0.699000    0.020000    0.688600
N41    N    0.690000    0.075000    0.943800
N42    N    0.660500    0.003500    0.724550
C124    C    0.605000    0.494000    0.873400
H103    H    0.635000    0.471000    0.699850
C125    C    0.560000    0.450000    0.836200
C126    C    0.648500    0.049500    0.501600
H104    H    0.650000    0.061000    0.575550
H105    H    0.570000    0.490000    0.518050
O43    O    0.778000    0.170950    0.920950
O44    O    0.828200    0.186950    0.552050
C127    C    0.844400    0.260950    0.825550
C128    C    0.910800    0.268050    0.962800
C129    C    0.947750    0.307700    0.911950
H106    H    0.990400    0.324900    0.943200
H107    H    0.960300    0.281800    0.584050
N43    N    0.931300    0.326350    0.826850
N44    N    0.925700    0.257700    0.552450
C130    C    0.858500    0.242400    0.916400
H108    H    0.896450    0.230700    0.588800
C131    C    0.820600    0.199600    0.964250
C132    C    0.880600    0.303250    0.783050
H109    H    0.869300    0.320000    0.713800
H110    H    0.803650    0.245050    0.787650
Ni12    Ni    0.999350    0.375750    0.772950
O45    O    0.765000    0.065000    0.634500
O46    O    0.815000    0.070000    0.502200
C133    C    0.854500    0.490000    0.717900
C134    C    0.901500    0.481000    0.563850
C135    C    0.940000    0.440000    0.602300
H111    H    0.975000    0.415000    0.556950
H112    H    0.949000    0.480000    0.938600
N45    N    0.940000    0.425000    0.693800
N46    N    0.910500    0.496500    0.974550
C136    C    0.855000    0.006000    0.623400
H113    H    0.885000    0.029000    0.949850
C137    C    0.810000    0.050000    0.586200
C138    C    0.898500    0.450500    0.751600
H114    H    0.900000    0.439000    0.825550
H115    H    0.820000    0.010000    0.768050
O47    O    0.528000    0.329050    0.670950
O48    O    0.578200    0.313050    0.802050
C139    C    0.594400    0.239050    0.575550
C140    C    0.660800    0.231950    0.712800
C141    C    0.697750    0.192300    0.661950
H116    H    0.740400    0.175100    0.693200
H117    H    0.710300    0.218200    0.834050
N47    N    0.681300    0.173650    0.576850
N48    N    0.675700    0.242300    0.802450
C142    C    0.608500    0.257600    0.666400
H118    H    0.646450    0.269300    0.838800
C143    C    0.570600    0.300400    0.714250
C144    C    0.630600    0.196750    0.533050
H119    H    0.619300    0.180000    0.963800
H120    H    0.553650    0.254950    0.537650
Ni13    Ni    0.749350    0.624250    0.022950
O49    O    0.515000    0.935000    0.384500
O50    O    0.565000    0.930000    0.252200
C145    C    0.604500    0.510000    0.467900
C146    C    0.651500    0.519000    0.313850
C147    C    0.690000    0.560000    0.352300
H121    H    0.725000    0.585000    0.306950
H122    H    0.699000    0.520000    0.188600
N49    N    0.690000    0.575000    0.443800
N50    N    0.660500    0.503500    0.224550
C148    C    0.605000    0.994000    0.373400
H123    H    0.635000    0.971000    0.199850
C149    C    0.560000    0.950000    0.336200
C150    C    0.648500    0.549500    0.001600
H124    H    0.650000    0.561000    0.075550
H125    H    0.570000    0.990000    0.018050
O51    O    0.778000    0.670950    0.420950
O52    O    0.828200    0.686950    0.052050
C151    C    0.844400    0.760950    0.325550
C152    C    0.910800    0.768050    0.462800
C153    C    0.947750    0.807700    0.411950
H126    H    0.990400    0.824900    0.443200
H127    H    0.960300    0.781800    0.084050
N51    N    0.931300    0.826350    0.326850
N52    N    0.925700    0.757700    0.052450
C154    C    0.858500    0.742400    0.416400
H128    H    0.896450    0.730700    0.088800
C155    C    0.820600    0.699600    0.464250
C156    C    0.880600    0.803250    0.283050
H129    H    0.869300    0.820000    0.213800
H130    H    0.803650    0.745050    0.287650
Ni14    Ni    0.999350    0.875750    0.272950
O53    O    0.765000    0.565000    0.134500
O54    O    0.815000    0.570000    0.002200
C157    C    0.854500    0.990000    0.217900
C158    C    0.901500    0.981000    0.063850
C159    C    0.940000    0.940000    0.102300
H131    H    0.975000    0.915000    0.056950
H132    H    0.949000    0.980000    0.438600
N53    N    0.940000    0.925000    0.193800
N54    N    0.910500    0.996500    0.474550
C160    C    0.855000    0.506000    0.123400
H133    H    0.885000    0.529000    0.449850
C161    C    0.810000    0.550000    0.086200
C162    C    0.898500    0.950500    0.251600
H134    H    0.900000    0.939000    0.325550
H135    H    0.820000    0.510000    0.268050
O55    O    0.528000    0.829050    0.170950
O56    O    0.578200    0.813050    0.302050
C163    C    0.594400    0.739050    0.075550
C164    C    0.660800    0.731950    0.212800
C165    C    0.697750    0.692300    0.161950
H136    H    0.740400    0.675100    0.193200
H137    H    0.710300    0.718200    0.334050
N55    N    0.681300    0.673650    0.076850
N56    N    0.675700    0.742300    0.302450
C166    C    0.608500    0.757600    0.166400
H138    H    0.646450    0.769300    0.338800
C167    C    0.570600    0.800400    0.214250
C168    C    0.630600    0.696750    0.033050
H139    H    0.619300    0.680000    0.463800
H140    H    0.553650    0.754950    0.037650
Ni15    Ni    0.749350    0.624250    0.522950
O57    O    0.515000    0.935000    0.884500
O58    O    0.565000    0.930000    0.752200
C169    C    0.604500    0.510000    0.967900
C170    C    0.651500    0.519000    0.813850
C171    C    0.690000    0.560000    0.852300
H141    H    0.725000    0.585000    0.806950
H142    H    0.699000    0.520000    0.688600
N57    N    0.690000    0.575000    0.943800
N58    N    0.660500    0.503500    0.724550
C172    C    0.605000    0.994000    0.873400
H143    H    0.635000    0.971000    0.699850
C173    C    0.560000    0.950000    0.836200
C174    C    0.648500    0.549500    0.501600
H144    H    0.650000    0.561000    0.575550
H145    H    0.570000    0.990000    0.518050
O59    O    0.778000    0.670950    0.920950
O60    O    0.828200    0.686950    0.552050
C175    C    0.844400    0.760950    0.825550
C176    C    0.910800    0.768050    0.962800
C177    C    0.947750    0.807700    0.911950
H146    H    0.990400    0.824900    0.943200
H147    H    0.960300    0.781800    0.584050
N59    N    0.931300    0.826350    0.826850
N60    N    0.925700    0.757700    0.552450
C178    C    0.858500    0.742400    0.916400
H148    H    0.896450    0.730700    0.588800
C179    C    0.820600    0.699600    0.964250
C180    C    0.880600    0.803250    0.783050
H149    H    0.869300    0.820000    0.713800
H150    H    0.803650    0.745050    0.787650
Ni16    Ni    0.999350    0.875750    0.772950
O61    O    0.765000    0.565000    0.634500
O62    O    0.815000    0.570000    0.502200
C181    C    0.854500    0.990000    0.717900
C182    C    0.901500    0.981000    0.563850
C183    C    0.940000    0.940000    0.602300
H151    H    0.975000    0.915000    0.556950
H152    H    0.949000    0.980000    0.938600
N61    N    0.940000    0.925000    0.693800
N62    N    0.910500    0.996500    0.974550
C184    C    0.855000    0.506000    0.623400
H153    H    0.885000    0.529000    0.949850
C185    C    0.810000    0.550000    0.586200
C186    C    0.898500    0.950500    0.751600
H154    H    0.900000    0.939000    0.825550
H155    H    0.820000    0.510000    0.768050
O63    O    0.528000    0.829050    0.670950
O64    O    0.578200    0.813050    0.802050
C187    C    0.594400    0.739050    0.575550
C188    C    0.660800    0.731950    0.712800
C189    C    0.697750    0.692300    0.661950
H156    H    0.740400    0.675100    0.693200
H157    H    0.710300    0.718200    0.834050
N63    N    0.681300    0.673650    0.576850
N64    N    0.675700    0.742300    0.802450
C190    C    0.608500    0.757600    0.666400
H158    H    0.646450    0.769300    0.838800
C191    C    0.570600    0.800400    0.714250
C192    C    0.630600    0.696750    0.533050
H159    H    0.619300    0.680000    0.963800
H160    H    0.553650    0.754950    0.537650
