units           real
atom_style      full
boundary        p p p

pair_style      lj/cut 5.000
bond_style      harmonic
angle_style     hybrid fourier cosine/periodic
dihedral_style  harmonic
improper_style  fourier

special_bonds   lj/coul 0.0 0.0 1.0
pair_modify     tail yes mix arithmetic
dielectric      1.0
box tilt        large
read_data       data.NiPyC2_relax_sc211_meta_functionalized_O-CH2-CH2-CH3
  triclinic box = (0 0 0) to (12.5056 12.5234 10.2743) with tilt (0 -0.227594 0)
  reading atoms ...
  188 atoms
  scanning bonds ...
  scanning angles ...
  scanning dihedrals ...
  scanning impropers ...
  reading bonds ...
  204 bonds
  reading angles ...
  387 angles
  reading dihedrals ...
  428 dihedrals
  reading impropers ...
  171 impropers

#### Atom Groupings ####
group           1        id   185:188
4 atoms in group 1
group           1-1      id   185
1 atoms in group 1-1
group           1-2      id   186
1 atoms in group 1-2
group           1-3      id   187
1 atoms in group 1-3
group           1-4      id   188
1 atoms in group 1-4
group           fram     id   1:184
184 atoms in group fram
#### END Atom Groupings ####

dump            NiPyC2_relax_sc211_meta_functionalized_O-CH2-CH2-CH3_xyzmov all xyz 20000 NiPyC2_relax_sc211_meta_functionalized_O-CH2-CH2-CH3_mov.xyz
dump_modify     NiPyC2_relax_sc211_meta_functionalized_O-CH2-CH2-CH3_xyzmov element Ni O N C H O C C C H
min_style       cg
print           "MinStep,CellMinStep,AtomMinStep,FinalStep,Energy,EDiff" file NiPyC2_relax_sc211_meta_functionalized_O-CH2-CH2-CH3.min.csv screen no
variable        min_eval   equal 1.00e-06
variable        prev_E     equal 50000.00
variable        iter       loop 100000
label           loop_min
min_style       cg
fix             1 all box/relax aniso 0.0 vmax 0.01
minimize        1.0e-15 1.0e-15 10000 100000
  update every 1 steps, delay 0 steps, check yes
Step Temp E_pair E_mol TotEng Press Volume
0            0 1.0969837e+11    2399.2699 1.0969837e+11 1.8698491e+13    1609.0819
Loop time of 0.501928 on 1 procs for 1044 steps with 188 atoms

Minimization stats:
  Stopping criterion = linesearch alpha is zero
  Energy initial, next-to-last, final =
  Force two-norm initial, final = 5.80121e+12 88.9328
  Force max component initial, final = 3.27376e+12 44.4933
  Final line search alpha, max atom move = 8.85953e-13 3.9419e-11
  Iterations, force evaluations = 1044 1838

unfix           1
min_style       fire
variable        tempstp    equal $(step)
variable        tempstp    equal 1044
variable        CellMinStep equal 1044
minimize        1.0e-15 1.0e-15 10000 100000
  Parameters for fire:
    dmax delaystep dtgrow dtshrink alpha0 alphashrink tmax tmin    integrator halfstepback
     0.1        20    1.1      0.5   0.25        0.99   10 0.02 eulerimplicit          yes
Step Temp E_pair E_mol TotEng Press
1044            0    177.05449    1762.4592    1939.5137    716.69689
Loop time of 0.860495 on 1 procs for 3636 steps with 188 atoms

Minimization stats:
  Stopping criterion = energy tolerance
  Energy initial, next-to-last, final =
  Force two-norm initial, final = 67.0579 3.74085e-05
  Force max component initial, final = 13.0031 7.39907e-06
  Final line search alpha, max atom move = 0 0
  Iterations, force evaluations = 3636 3636

variable        AtomMinStep equal 1044
variable        temppe     equal $(pe)
variable        temppe     equal 1907.3907409949488283
variable        min_E      equal abs(50000-1907.39074099495)
variable        prev_E     equal 1907.39074099495
next            iter
jump            SELF loop_min
min_style       cg
fix             1 all box/relax aniso 0.0 vmax 0.01
minimize        1.0e-15 1.0e-15 10000 100000
Step Temp E_pair E_mol TotEng Press Volume
4680 7.6063499e-11    159.07008    1748.3207    1907.3907   -2826.6341    1677.5548
Loop time of 0.0161791 on 1 procs for 2 steps with 188 atoms

Minimization stats:
  Stopping criterion = linesearch alpha is zero
  Energy initial, next-to-last, final =
  Force two-norm initial, final = 247.117 52.7843
  Force max component initial, final = 242.225 44.8409
  Final line search alpha, max atom move = 3.35794e-12 1.50573e-10
  Iterations, force evaluations = 2 55

unfix           1
min_style       fire
variable        tempstp    equal $(step)
variable        tempstp    equal 4682
variable        CellMinStep equal 4682
minimize        1.0e-15 1.0e-15 10000 100000
  Parameters for fire:
    dmax delaystep dtgrow dtshrink alpha0 alphashrink tmax tmin    integrator halfstepback
     0.1        20    1.1      0.5   0.25        0.99   10 0.02 eulerimplicit          yes
Step Temp E_pair E_mol TotEng Press
4682            0     163.5477    1743.5284    1907.0761    914.87679
Loop time of 0.551049 on 1 procs for 2321 steps with 188 atoms

Minimization stats:
  Stopping criterion = energy tolerance
  Energy initial, next-to-last, final =
  Force two-norm initial, final = 16.7001 4.34176e-05
  Force max component initial, final = 3.43778 9.09063e-06
  Final line search alpha, max atom move = 0 0
  Iterations, force evaluations = 2321 2321

variable        AtomMinStep equal 4682
variable        temppe     equal $(pe)
variable        temppe     equal 1906.9459195471490602
variable        min_E      equal abs(1907.39074099495-1906.94591954715)
variable        prev_E     equal 1906.94591954715
next            iter
jump            SELF loop_min
min_style       cg
fix             1 all box/relax aniso 0.0 vmax 0.01
minimize        1.0e-15 1.0e-15 10000 100000
Step Temp E_pair E_mol TotEng Press Volume
7003  1.10631e-10    162.01042    1744.9355    1906.9459   -678.97115    1674.0531
Loop time of 0.0191823 on 1 procs for 7 steps with 188 atoms

Minimization stats:
  Stopping criterion = linesearch alpha is zero
  Energy initial, next-to-last, final =
  Force two-norm initial, final = 174.636 32.5959
  Force max component initial, final = 156.062 27.7817
  Final line search alpha, max atom move = 7.14272e-12 1.98437e-10
  Iterations, force evaluations = 7 65

unfix           1
min_style       fire
variable        tempstp    equal $(step)
variable        tempstp    equal 7010
variable        CellMinStep equal 7010
minimize        1.0e-15 1.0e-15 10000 100000
  Parameters for fire:
    dmax delaystep dtgrow dtshrink alpha0 alphashrink tmax tmin    integrator halfstepback
     0.1        20    1.1      0.5   0.25        0.99   10 0.02 eulerimplicit          yes
Step Temp E_pair E_mol TotEng Press
7010            0    162.56868    1744.0556    1906.6243   -367.29448
Loop time of 0.543216 on 1 procs for 2285 steps with 188 atoms

Minimization stats:
  Stopping criterion = energy tolerance
  Energy initial, next-to-last, final =
  Force two-norm initial, final = 14.5931 3.53203e-05
  Force max component initial, final = 3.21354 7.54259e-06
  Final line search alpha, max atom move = 0 0
  Iterations, force evaluations = 2285 2285

variable        AtomMinStep equal 7010
variable        temppe     equal $(pe)
variable        temppe     equal 1906.2171463770735045
variable        min_E      equal abs(1906.94591954715-1906.21714637707)
variable        prev_E     equal 1906.21714637707
next            iter
jump            SELF loop_min
min_style       cg
fix             1 all box/relax aniso 0.0 vmax 0.01
minimize        1.0e-15 1.0e-15 10000 100000
Step Temp E_pair E_mol TotEng Press Volume
9295 7.9273701e-11    163.09552    1743.1216    1906.2171    313.71649    1673.8486
Loop time of 0.0153195 on 1 procs for 3 steps with 188 atoms

Minimization stats:
  Stopping criterion = linesearch alpha is zero
  Energy initial, next-to-last, final =
  Force two-norm initial, final = 118.058 19.2004
  Force max component initial, final = 87.7447 11.6471
  Final line search alpha, max atom move = 8.48758e-11 9.88558e-10
  Iterations, force evaluations = 3 55

unfix           1
min_style       fire
variable        tempstp    equal $(step)
variable        tempstp    equal 9298
variable        CellMinStep equal 9298
minimize        1.0e-15 1.0e-15 10000 100000
  Parameters for fire:
    dmax delaystep dtgrow dtshrink alpha0 alphashrink tmax tmin    integrator halfstepback
     0.1        20    1.1      0.5   0.25        0.99   10 0.02 eulerimplicit          yes
Step Temp E_pair E_mol TotEng Press
9298            0    163.54045    1742.6203    1906.1607    361.20141
Loop time of 0.377342 on 1 procs for 1590 steps with 188 atoms

Minimization stats:
  Stopping criterion = energy tolerance
  Energy initial, next-to-last, final =
  Force two-norm initial, final = 10.007 3.32362e-05
  Force max component initial, final = 1.70094 7.79017e-06
  Final line search alpha, max atom move = 0 0
  Iterations, force evaluations = 1590 1590

variable        AtomMinStep equal 9298
variable        temppe     equal $(pe)
variable        temppe     equal 1906.0867802893963017
variable        min_E      equal abs(1906.21714637707-1906.0867802894)
variable        prev_E     equal 1906.0867802894
next            iter
jump            SELF loop_min
min_style       cg
fix             1 all box/relax aniso 0.0 vmax 0.01
minimize        1.0e-15 1.0e-15 10000 100000
Step Temp E_pair E_mol TotEng Press Volume
10888 7.1449549e-11    163.62801    1742.4588    1906.0868    692.62943    1673.6498
Loop time of 0.014406 on 1 procs for 2 steps with 188 atoms

Minimization stats:
  Stopping criterion = linesearch alpha is zero
  Energy initial, next-to-last, final =
  Force two-norm initial, final = 102.958 25.1187
  Force max component initial, final = 63.382 16.9145
  Final line search alpha, max atom move = 1.41217e-11 2.38862e-10
  Iterations, force evaluations = 2 53

unfix           1
min_style       fire
variable        tempstp    equal $(step)
variable        tempstp    equal 10890
variable        CellMinStep equal 10890
minimize        1.0e-15 1.0e-15 10000 100000
  Parameters for fire:
    dmax delaystep dtgrow dtshrink alpha0 alphashrink tmax tmin    integrator halfstepback
     0.1        20    1.1      0.5   0.25        0.99   10 0.02 eulerimplicit          yes
Step Temp E_pair E_mol TotEng Press
10890            0    162.79349     1743.283    1906.0765    -483.8919
Loop time of 0.384341 on 1 procs for 1618 steps with 188 atoms

Minimization stats:
  Stopping criterion = energy tolerance
  Energy initial, next-to-last, final =
  Force two-norm initial, final = 8.75225 3.7106e-05
  Force max component initial, final = 1.32949 7.36314e-06
  Final line search alpha, max atom move = 0 0
  Iterations, force evaluations = 1618 1618

variable        AtomMinStep equal 10890
variable        temppe     equal $(pe)
variable        temppe     equal 1906.0139347364597597
variable        min_E      equal abs(1906.0867802894-1906.01393473646)
variable        prev_E     equal 1906.01393473646
next            iter
jump            SELF loop_min
min_style       cg
fix             1 all box/relax aniso 0.0 vmax 0.01
minimize        1.0e-15 1.0e-15 10000 100000
Step Temp E_pair E_mol TotEng Press Volume
12508 7.5277796e-11    163.40821    1742.6057    1906.0139    535.07478    1674.5255
Loop time of 0.0158594 on 1 procs for 3 steps with 188 atoms

Minimization stats:
  Stopping criterion = linesearch alpha is zero
  Energy initial, next-to-last, final =
  Force two-norm initial, final = 90.7193 14.0129
  Force max component initial, final = 58.3283 9.27932
  Final line search alpha, max atom move = 1.38862e-10 1.28854e-09
  Iterations, force evaluations = 3 55

unfix           1
min_style       fire
variable        tempstp    equal $(step)
variable        tempstp    equal 12511
variable        CellMinStep equal 12511
minimize        1.0e-15 1.0e-15 10000 100000
  Parameters for fire:
    dmax delaystep dtgrow dtshrink alpha0 alphashrink tmax tmin    integrator halfstepback
     0.1        20    1.1      0.5   0.25        0.99   10 0.02 eulerimplicit          yes
Step Temp E_pair E_mol TotEng Press
12511            0     163.4424    1742.5505    1905.9929    256.53607
Loop time of 0.302471 on 1 procs for 1273 steps with 188 atoms

Minimization stats:
  Stopping criterion = energy tolerance
  Energy initial, next-to-last, final =
  Force two-norm initial, final = 7.79156 3.27075e-05
  Force max component initial, final = 1.24991 9.02338e-06
  Final line search alpha, max atom move = 0 0
  Iterations, force evaluations = 1273 1273

variable        AtomMinStep equal 12511
variable        temppe     equal $(pe)
variable        temppe     equal 1905.9916044734982279
variable        min_E      equal abs(1906.01393473646-1905.9916044735)
variable        prev_E     equal 1905.9916044735
next            iter
jump            SELF loop_min
min_style       cg
fix             1 all box/relax aniso 0.0 vmax 0.01
minimize        1.0e-15 1.0e-15 10000 100000
Step Temp E_pair E_mol TotEng Press Volume
13784 7.4585148e-11    163.70406    1742.2875    1905.9916    708.11984     1674.643
Loop time of 0.0163223 on 1 procs for 4 steps with 188 atoms

Minimization stats:
  Stopping criterion = linesearch alpha is zero
  Energy initial, next-to-last, final =
  Force two-norm initial, final = 80.2751 18.8427
  Force max component initial, final = 52.822 14.5745
  Final line search alpha, max atom move = 2.82352e-11 4.11515e-10
  Iterations, force evaluations = 4 59

unfix           1
min_style       fire
variable        tempstp    equal $(step)
variable        tempstp    equal 13788
variable        CellMinStep equal 13788
minimize        1.0e-15 1.0e-15 10000 100000
  Parameters for fire:
    dmax delaystep dtgrow dtshrink alpha0 alphashrink tmax tmin    integrator halfstepback
     0.1        20    1.1      0.5   0.25        0.99   10 0.02 eulerimplicit          yes
Step Temp E_pair E_mol TotEng Press
13788            0    163.46922    1742.4462    1905.9154    279.34042
Loop time of 0.469968 on 1 procs for 1995 steps with 188 atoms

Minimization stats:
  Stopping criterion = energy tolerance
  Energy initial, next-to-last, final =
  Force two-norm initial, final = 6.98762 3.76123e-05
  Force max component initial, final = 1.01294 7.54731e-06
  Final line search alpha, max atom move = 0 0
  Iterations, force evaluations = 1995 1995

variable        AtomMinStep equal 13788
variable        temppe     equal $(pe)
variable        temppe     equal 1905.9532580004263309
variable        min_E      equal abs(1905.9916044735-1905.95325800043)
variable        prev_E     equal 1905.95325800043
next            iter
jump            SELF loop_min
min_style       cg
fix             1 all box/relax aniso 0.0 vmax 0.01
minimize        1.0e-15 1.0e-15 10000 100000
Step Temp E_pair E_mol TotEng Press Volume
15783 7.7982283e-11    163.86218    1742.0911    1905.9533    786.60222    1674.9146
Loop time of 0.0151496 on 1 procs for 2 steps with 188 atoms

Minimization stats:
  Stopping criterion = linesearch alpha is zero
  Energy initial, next-to-last, final =
  Force two-norm initial, final = 71.4498 18.4501
  Force max component initial, final = 50.5517 16.8699
  Final line search alpha, max atom move = 3.5332e-11 5.96046e-10
  Iterations, force evaluations = 2 53

unfix           1
min_style       fire
variable        tempstp    equal $(step)
variable        tempstp    equal 15785
variable        CellMinStep equal 15785
minimize        1.0e-15 1.0e-15 10000 100000
  Parameters for fire:
    dmax delaystep dtgrow dtshrink alpha0 alphashrink tmax tmin    integrator halfstepback
     0.1        20    1.1      0.5   0.25        0.99   10 0.02 eulerimplicit          yes
Step Temp E_pair E_mol TotEng Press
15785            0    162.96643    1742.9691    1905.9355   -277.51054
Loop time of 0.418247 on 1 procs for 1737 steps with 188 atoms

Minimization stats:
  Stopping criterion = energy tolerance
  Energy initial, next-to-last, final =
  Force two-norm initial, final = 5.30636 3.35032e-05
  Force max component initial, final = 0.867291 6.76433e-06
  Final line search alpha, max atom move = 0 0
  Iterations, force evaluations = 1737 1737

variable        AtomMinStep equal 15785
variable        temppe     equal $(pe)
variable        temppe     equal 1905.9563082176186981
variable        min_E      equal abs(1905.95325800043-1905.95630821762)
variable        prev_E     equal 1905.95630821762
next            iter
jump            SELF loop_min
min_style       cg
fix             1 all box/relax aniso 0.0 vmax 0.01
minimize        1.0e-15 1.0e-15 10000 100000
Step Temp E_pair E_mol TotEng Press Volume
17522 7.3422549e-11    163.54339    1742.4129    1905.9563    539.36455    1675.7527
Loop time of 0.0148862 on 1 procs for 2 steps with 188 atoms

Minimization stats:
  Stopping criterion = linesearch alpha is zero
  Energy initial, next-to-last, final =
  Force two-norm initial, final = 63.1412 16.4533
  Force max component initial, final = 42.9153 12.2525
  Final line search alpha, max atom move = 4.01528e-11 4.91972e-10
  Iterations, force evaluations = 2 51

unfix           1
min_style       fire
variable        tempstp    equal $(step)
variable        tempstp    equal 17524
variable        CellMinStep equal 17524
minimize        1.0e-15 1.0e-15 10000 100000
  Parameters for fire:
    dmax delaystep dtgrow dtshrink alpha0 alphashrink tmax tmin    integrator halfstepback
     0.1        20    1.1      0.5   0.25        0.99   10 0.02 eulerimplicit          yes
Step Temp E_pair E_mol TotEng Press
17524            0     162.8718     1743.068    1905.9398    -315.4178
Loop time of 0.355151 on 1 procs for 1509 steps with 188 atoms

Minimization stats:
  Stopping criterion = energy tolerance
  Energy initial, next-to-last, final =
  Force two-norm initial, final = 5.25661 4.29585e-05
  Force max component initial, final = 0.836075 8.7393e-06
  Final line search alpha, max atom move = 0 0
  Iterations, force evaluations = 1509 1509

variable        AtomMinStep equal 17524
variable        temppe     equal $(pe)
variable        temppe     equal 1905.9123446747353228
variable        min_E      equal abs(1905.95630821762-1905.91234467474)
variable        prev_E     equal 1905.91234467474
next            iter
jump            SELF loop_min
min_style       cg
fix             1 all box/relax aniso 0.0 vmax 0.01
minimize        1.0e-15 1.0e-15 10000 100000
Step Temp E_pair E_mol TotEng Press Volume
19033 1.090361e-10    163.30299    1742.6094    1905.9123    381.66947    1676.4071
Loop time of 0.0158698 on 1 procs for 1 steps with 188 atoms

Minimization stats:
  Stopping criterion = linesearch alpha is zero
  Energy initial, next-to-last, final =
  Force two-norm initial, final = 55.7193 55.7193
  Force max component initial, final = 36.5695 36.5695
  Final line search alpha, max atom move = 2.03737e-12 7.45058e-11
  Iterations, force evaluations = 1 55

unfix           1
min_style       fire
variable        tempstp    equal $(step)
variable        tempstp    equal 19034
variable        CellMinStep equal 19034
minimize        1.0e-15 1.0e-15 10000 100000
  Parameters for fire:
    dmax delaystep dtgrow dtshrink alpha0 alphashrink tmax tmin    integrator halfstepback
     0.1        20    1.1      0.5   0.25        0.99   10 0.02 eulerimplicit          yes
Step Temp E_pair E_mol TotEng Press
19034            0    163.30299    1742.6094    1905.9123    381.66947
Loop time of 0.0138623 on 1 procs for 55 steps with 188 atoms

Minimization stats:
  Stopping criterion = energy tolerance
  Energy initial, next-to-last, final =
  Force two-norm initial, final = 4.29585e-05 3.6066e-05
  Force max component initial, final = 8.73931e-06 7.20462e-06
  Final line search alpha, max atom move = 0 0
  Iterations, force evaluations = 55 55

variable        AtomMinStep equal 19034
variable        temppe     equal $(pe)
variable        temppe     equal 1905.9123446745668389
variable        min_E      equal abs(1905.91234467474-1905.91234467457)
jump SELF break_min
undump          NiPyC2_relax_sc211_meta_functionalized_O-CH2-CH2-CH3_xyzmov

# Dump last snapshot for restart
variable curr_lx equal lx
variable curr_ly equal ly
variable curr_lz equal lz
change_box all x final 0 14.1111131691333 y final 0 11.19385713469 z final 0 10.6130069033783
  triclinic box = (0 0.664771 -0.169364) to (14.1111 11.8586 10.4436) with tilt (0 -0.235097 0)
  triclinic box = (0 0 -0.169364) to (14.1111 11.1939 10.4436) with tilt (0 -0.235097 0)
  triclinic box = (0 0 0) to (14.1111 11.1939 10.613) with tilt (0 -0.235097 0)

reset_timestep 0
dump            NiPyC2_relax_sc211_meta_functionalized_O-CH2-CH2-CH3_restart all atom 1 NiPyC2_relax_sc211_meta_functionalized_O-CH2-CH2-CH3_restart.lammpstrj
dump_modify     NiPyC2_relax_sc211_meta_functionalized_O-CH2-CH2-CH3_restart scale no sort id
run 0
Step Temp E_pair E_mol TotEng Press
0 7.5479407e-11      163.303    1742.6093    1905.9123    381.67459
Loop time of 8.76986e-07 on 1 procs for 0 steps with 188 atoms

undump          NiPyC2_relax_sc211_meta_functionalized_O-CH2-CH2-CH3_restart
units           real
atom_style      full
boundary        p p p

pair_style      lj/cut 5.000
bond_style      harmonic
angle_style     hybrid fourier cosine/periodic
dihedral_style  harmonic
improper_style  fourier

special_bonds   lj/coul 0.0 0.0 1.0
pair_modify     tail yes mix arithmetic
dielectric      1.0
box tilt        large
read_data       data.NiPyC2_relax_sc211_meta_functionalized_O-CH2-CH2-CH3
  triclinic box = (0 0 0) to (12.5056 12.5234 10.2743) with tilt (0 -0.227594 0)
  reading atoms ...
  188 atoms
  scanning bonds ...
  scanning angles ...
  scanning dihedrals ...
  scanning impropers ...
  reading bonds ...
  204 bonds
  reading angles ...
  387 angles
  reading dihedrals ...
  428 dihedrals
  reading impropers ...
  171 impropers

#### Atom Groupings ####
group           1        id   185:188
4 atoms in group 1
group           1-1      id   185
1 atoms in group 1-1
group           1-2      id   186
1 atoms in group 1-2
group           1-3      id   187
1 atoms in group 1-3
group           1-4      id   188
1 atoms in group 1-4
group           fram     id   1:184
184 atoms in group fram
#### END Atom Groupings ####

dump            NiPyC2_relax_sc211_meta_functionalized_O-CH2-CH2-CH3_xyzmov all xyz 20000 NiPyC2_relax_sc211_meta_functionalized_O-CH2-CH2-CH3_mov.xyz
dump_modify     NiPyC2_relax_sc211_meta_functionalized_O-CH2-CH2-CH3_xyzmov element Ni O N C H O C C C H
min_style       cg
print           "MinStep,CellMinStep,AtomMinStep,FinalStep,Energy,EDiff,vol,lx,ly,lz,xy,xz,yz" file NiPyC2_relax_sc211_meta_functionalized_O-CH2-CH2-CH3.min.csv screen no
variable        min_eval   equal 1.00e-06
variable        prev_E     equal 50000.00
variable        iter       loop 100000
label           loop_min
min_style       cg
variable        tempstp    equal $(step)
variable        tempstp    equal 0
variable        CellMinStep equal 0
minimize        1.0e-15 1.0e-15 10000 100000
  update every 1 steps, delay 0 steps, check yes
Step Temp E_pair E_mol TotEng Press
0            0 1.0969837e+11    2399.2699 1.0969837e+11 1.8698491e+13
Loop time of 0.166429 on 1 procs for 283 steps with 188 atoms

Minimization stats:
  Stopping criterion = linesearch alpha is zero
  Energy initial, next-to-last, final =
  Force two-norm initial, final = 5.72137e+12 11.1617
  Force max component initial, final = 3.27376e+12 2.09739
  Final line search alpha, max atom move = 9.49186e-11 1.99081e-10
  Iterations, force evaluations = 283 562

variable        AtomMinStep equal 0
variable        temppe     equal $(pe)
variable        temppe     equal 2311.7576127118118166
variable        min_E      equal abs(50000-2311.75761271181)
variable        prev_E     equal 2311.75761271181
next            iter
jump            SELF loop_min
min_style       cg
variable        tempstp    equal $(step)
variable        tempstp    equal 283
variable        CellMinStep equal 283
minimize        1.0e-15 1.0e-15 10000 100000
Step Temp E_pair E_mol TotEng Press
283            0    230.58506    2081.1726    2311.7576    -13364.02
Loop time of 0.024571 on 1 procs for 18 steps with 188 atoms

Minimization stats:
  Stopping criterion = linesearch alpha is zero
  Energy initial, next-to-last, final =
  Force two-norm initial, final = 11.1617 9.77271
  Force max component initial, final = 2.09739 1.65577
  Final line search alpha, max atom move = 1.10966e-10 1.83735e-10
  Iterations, force evaluations = 18 92

variable        AtomMinStep equal 283
variable        temppe     equal $(pe)
variable        temppe     equal 2310.8938948142508707
variable        min_E      equal abs(2311.75761271181-2310.89389481425)
variable        prev_E     equal 2310.89389481425
next            iter
jump            SELF loop_min
min_style       cg
variable        tempstp    equal $(step)
variable        tempstp    equal 301
variable        CellMinStep equal 301
minimize        1.0e-15 1.0e-15 10000 100000
Step Temp E_pair E_mol TotEng Press
301            0    229.10432    2081.7896    2310.8939   -13699.726
Loop time of 0.0184526 on 1 procs for 8 steps with 188 atoms

Minimization stats:
  Stopping criterion = linesearch alpha is zero
  Energy initial, next-to-last, final =
  Force two-norm initial, final = 9.77271 6.97558
  Force max component initial, final = 1.65577 1.50973
  Final line search alpha, max atom move = 2.1715e-10 3.27837e-10
  Iterations, force evaluations = 8 69

variable        AtomMinStep equal 301
variable        temppe     equal $(pe)
variable        temppe     equal 2310.7419233369641915
variable        min_E      equal abs(2310.89389481425-2310.74192333696)
variable        prev_E     equal 2310.74192333696
next            iter
jump            SELF loop_min
min_style       cg
variable        tempstp    equal $(step)
variable        tempstp    equal 309
variable        CellMinStep equal 309
minimize        1.0e-15 1.0e-15 10000 100000
Step Temp E_pair E_mol TotEng Press
309            0    229.16844    2081.5735    2310.7419   -13846.049
Loop time of 0.0152538 on 1 procs for 1 steps with 188 atoms

Minimization stats:
  Stopping criterion = linesearch alpha is zero
  Energy initial, next-to-last, final =
  Force two-norm initial, final = 6.97558 6.97558
  Force max component initial, final = 1.50973 1.50973
  Final line search alpha, max atom move = 2.46752e-10 3.72529e-10
  Iterations, force evaluations = 1 56

variable        AtomMinStep equal 309
variable        temppe     equal $(pe)
variable        temppe     equal 2310.7419233369641915
variable        min_E      equal abs(2310.74192333696-2310.74192333696)
jump SELF break_min
undump          NiPyC2_relax_sc211_meta_functionalized_O-CH2-CH2-CH3_xyzmov

# Dump last snapshot for restart
variable curr_lx equal lx
variable curr_ly equal ly
variable curr_lz equal lz
change_box all x final 0 12.5056 y final 0 12.5234 z final 0 10.274279
  triclinic box = (0 0 0) to (12.5056 12.5234 10.2743) with tilt (0 -0.227594 0)
  triclinic box = (0 0 0) to (12.5056 12.5234 10.2743) with tilt (0 -0.227594 0)
  triclinic box = (0 0 0) to (12.5056 12.5234 10.2743) with tilt (0 -0.227594 0)

reset_timestep 0
dump            NiPyC2_relax_sc211_meta_functionalized_O-CH2-CH2-CH3_restart all atom 1 NiPyC2_relax_sc211_meta_functionalized_O-CH2-CH2-CH3_restart.lammpstrj
dump_modify     NiPyC2_relax_sc211_meta_functionalized_O-CH2-CH2-CH3_restart scale no sort id
run 0
Step Temp E_pair E_mol TotEng Press
0            0    229.16844    2081.5735    2310.7419   -13846.049
Loop time of 1.40601e-06 on 1 procs for 0 steps with 188 atoms

undump          NiPyC2_relax_sc211_meta_functionalized_O-CH2-CH2-CH3_restart
