units           real
atom_style      full
boundary        p p p

pair_style      lj/cut 5.000
bond_style      harmonic
angle_style     hybrid fourier cosine/periodic
dihedral_style  harmonic
improper_style  fourier

dielectric      1.0
special_bonds   lj/coul 0.0 0.0 1.0
pair_modify     tail yes mix arithmetic
box tilt        large
read_data       data.NiPyC2_relax_sc211_ortho_functionalized_O-CH2-CH2-CH3
  triclinic box = (0 0 0) to (12.5056 12.5234 10.2743) with tilt (0 -0.227594 0)
  reading atoms ...
  188 atoms
  scanning bonds ...
  scanning angles ...
  scanning dihedrals ...
  scanning impropers ...
  reading bonds ...
  204 bonds
  reading angles ...
  387 angles
  reading dihedrals ...
  428 dihedrals
  reading impropers ...
  171 impropers

#### Atom Groupings ####
group           1        id   185:188
4 atoms in group 1
group           1-1      id   185
1 atoms in group 1-1
group           1-2      id   186
1 atoms in group 1-2
group           1-3      id   187
1 atoms in group 1-3
group           1-4      id   188
1 atoms in group 1-4
group           fram     id   1:184
184 atoms in group fram
#### END Atom Groupings ####

dump            NiPyC2_relax_sc211_ortho_functionalized_O-CH2-CH2-CH3_xyzmov all xyz 20000 NiPyC2_relax_sc211_ortho_functionalized_O-CH2-CH2-CH3_mov.xyz
dump_modify     NiPyC2_relax_sc211_ortho_functionalized_O-CH2-CH2-CH3_xyzmov element Ni O N C H O C C C H
min_style       cg
print           "MinStep,CellMinStep,AtomMinStep,FinalStep,Energy,EDiff" file NiPyC2_relax_sc211_ortho_functionalized_O-CH2-CH2-CH3.min.csv screen no
variable        min_eval   equal 1.00e-06
variable        prev_E     equal 50000.00
variable        iter       loop 100000
label           loop_min
min_style       cg
fix             1 all box/relax aniso 0.0 vmax 0.01
minimize        1.0e-15 1.0e-15 10000 100000
  update every 1 steps, delay 0 steps, check yes
Step Temp E_pair E_mol TotEng Press Volume
0            0 1.7974392e+13    2395.0347 1.7974392e+13 3.0637987e+15    1609.0819
Loop time of 0.394973 on 1 procs for 884 steps with 188 atoms

Minimization stats:
  Stopping criterion = linesearch alpha is zero
  Energy initial, next-to-last, final =
  Force two-norm initial, final = 8.22449e+14 116.157
  Force max component initial, final = 2.82838e+14 79.1247
  Final line search alpha, max atom move = 7.44114e-13 5.88778e-11
  Iterations, force evaluations = 884 1489

unfix           1
min_style       fire
variable        tempstp    equal $(step)
variable        tempstp    equal 884
variable        CellMinStep equal 884
minimize        1.0e-15 1.0e-15 10000 100000
  Parameters for fire:
    dmax delaystep dtgrow dtshrink alpha0 alphashrink tmax tmin    integrator halfstepback
     0.1        20    1.1      0.5   0.25        0.99   10 0.02 eulerimplicit          yes
Step Temp E_pair E_mol TotEng Press
884            0    245.31768    2000.0746    2245.3923     335.0605
Loop time of 1.24631 on 1 procs for 5394 steps with 188 atoms

Minimization stats:
  Stopping criterion = energy tolerance
  Energy initial, next-to-last, final =
  Force two-norm initial, final = 66.5199 3.77689e-05
  Force max component initial, final = 10.3373 1.10003e-05
  Final line search alpha, max atom move = 0 0
  Iterations, force evaluations = 5394 5394

variable        AtomMinStep equal 884
variable        temppe     equal $(pe)
variable        temppe     equal 2102.149300846771439
variable        min_E      equal abs(50000-2102.14930084677)
variable        prev_E     equal 2102.14930084677
next            iter
jump            SELF loop_min
min_style       cg
fix             1 all box/relax aniso 0.0 vmax 0.01
minimize        1.0e-15 1.0e-15 10000 100000
Step Temp E_pair E_mol TotEng Press Volume
6278 9.2414009e-11    193.34655    1908.8028    2102.1493   -7064.3514     1758.204
Loop time of 0.0156559 on 1 procs for 3 steps with 188 atoms

Minimization stats:
  Stopping criterion = linesearch alpha is zero
  Energy initial, next-to-last, final =
  Force two-norm initial, final = 375.049 27.3925
  Force max component initial, final = 344.862 14.8872
  Final line search alpha, max atom move = 1.36608e-11 2.03372e-10
  Iterations, force evaluations = 3 57

unfix           1
min_style       fire
variable        tempstp    equal $(step)
variable        tempstp    equal 6281
variable        CellMinStep equal 6281
minimize        1.0e-15 1.0e-15 10000 100000
  Parameters for fire:
    dmax delaystep dtgrow dtshrink alpha0 alphashrink tmax tmin    integrator halfstepback
     0.1        20    1.1      0.5   0.25        0.99   10 0.02 eulerimplicit          yes
Step Temp E_pair E_mol TotEng Press
6281            0    201.88565    1899.5129    2101.3985   -158.05123
Loop time of 0.735786 on 1 procs for 3210 steps with 188 atoms

Minimization stats:
  Stopping criterion = energy tolerance
  Energy initial, next-to-last, final =
  Force two-norm initial, final = 21.5734 4.73016e-05
  Force max component initial, final = 3.87005 1.35112e-05
  Final line search alpha, max atom move = 0 0
  Iterations, force evaluations = 3210 3210

variable        AtomMinStep equal 6281
variable        temppe     equal $(pe)
variable        temppe     equal 2101.1647220496606678
variable        min_E      equal abs(2102.14930084677-2101.16472204966)
variable        prev_E     equal 2101.16472204966
next            iter
jump            SELF loop_min
min_style       cg
fix             1 all box/relax aniso 0.0 vmax 0.01
minimize        1.0e-15 1.0e-15 10000 100000
Step Temp E_pair E_mol TotEng Press Volume
9491 1.4546095e-10    198.73556    1902.4292    2101.1647   -3254.8536    1750.9693
Loop time of 0.0199987 on 1 procs for 9 steps with 188 atoms

Minimization stats:
  Stopping criterion = linesearch alpha is zero
  Energy initial, next-to-last, final =
  Force two-norm initial, final = 195.343 32.5336
  Force max component initial, final = 187.457 21.7226
  Final line search alpha, max atom move = 8.86546e-12 1.92581e-10
  Iterations, force evaluations = 9 69

unfix           1
min_style       fire
variable        tempstp    equal $(step)
variable        tempstp    equal 9500
variable        CellMinStep equal 9500
minimize        1.0e-15 1.0e-15 10000 100000
  Parameters for fire:
    dmax delaystep dtgrow dtshrink alpha0 alphashrink tmax tmin    integrator halfstepback
     0.1        20    1.1      0.5   0.25        0.99   10 0.02 eulerimplicit          yes
Step Temp E_pair E_mol TotEng Press
9500            0    203.92315    1896.8019    2100.7251   -132.88661
Loop time of 0.488467 on 1 procs for 2097 steps with 188 atoms

Minimization stats:
  Stopping criterion = energy tolerance
  Energy initial, next-to-last, final =
  Force two-norm initial, final = 8.53522 4.15298e-05
  Force max component initial, final = 1.60925 6.97145e-06
  Final line search alpha, max atom move = 0 0
  Iterations, force evaluations = 2097 2097

variable        AtomMinStep equal 9500
variable        temppe     equal $(pe)
variable        temppe     equal 2100.515953518308379
variable        min_E      equal abs(2101.16472204966-2100.51595351831)
variable        prev_E     equal 2100.51595351831
next            iter
jump            SELF loop_min
min_style       cg
fix             1 all box/relax aniso 0.0 vmax 0.01
minimize        1.0e-15 1.0e-15 10000 100000
Step Temp E_pair E_mol TotEng Press Volume
11597 6.8551788e-11    202.82056    1897.6954     2100.516   -222.30884    1746.3386
Loop time of 0.0147118 on 1 procs for 1 steps with 188 atoms

Minimization stats:
  Stopping criterion = linesearch alpha is zero
  Energy initial, next-to-last, final =
  Force two-norm initial, final = 61.0904 61.0904
  Force max component initial, final = 51.77 51.77
  Final line search alpha, max atom move = 2.87834e-12 1.49012e-10
  Iterations, force evaluations = 1 53

unfix           1
min_style       fire
variable        tempstp    equal $(step)
variable        tempstp    equal 11598
variable        CellMinStep equal 11598
minimize        1.0e-15 1.0e-15 10000 100000
  Parameters for fire:
    dmax delaystep dtgrow dtshrink alpha0 alphashrink tmax tmin    integrator halfstepback
     0.1        20    1.1      0.5   0.25        0.99   10 0.02 eulerimplicit          yes
Step Temp E_pair E_mol TotEng Press
11598            0    202.82056    1897.6954     2100.516   -222.30884
Loop time of 0.0140991 on 1 procs for 56 steps with 188 atoms

Minimization stats:
  Stopping criterion = energy tolerance
  Energy initial, next-to-last, final =
  Force two-norm initial, final = 4.15298e-05 3.51198e-05
  Force max component initial, final = 6.97144e-06 5.76837e-06
  Final line search alpha, max atom move = 0 0
  Iterations, force evaluations = 56 56

variable        AtomMinStep equal 11598
variable        temppe     equal $(pe)
variable        temppe     equal 2100.5159535181710453
variable        min_E      equal abs(2100.51595351831-2100.51595351817)
jump SELF break_min
undump          NiPyC2_relax_sc211_ortho_functionalized_O-CH2-CH2-CH3_xyzmov

# Dump last snapshot for restart
variable curr_lx equal lx
variable curr_ly equal ly
variable curr_lz equal lz
change_box all x final 0 15.9519065812646 y final 0 11.7285156494321 z final 0 9.33410737447531
  triclinic box = (0 0.397442 0.470086) to (15.9519 12.126 9.80419) with tilt (0 -0.206767 0)
  triclinic box = (0 0 0.470086) to (15.9519 11.7285 9.80419) with tilt (0 -0.206767 0)
  triclinic box = (0 0 0) to (15.9519 11.7285 9.33411) with tilt (0 -0.206767 0)

reset_timestep 0
dump            NiPyC2_relax_sc211_ortho_functionalized_O-CH2-CH2-CH3_restart all atom 1 NiPyC2_relax_sc211_ortho_functionalized_O-CH2-CH2-CH3_restart.lammpstrj
dump_modify     NiPyC2_relax_sc211_ortho_functionalized_O-CH2-CH2-CH3_restart scale no sort id
run 0
Step Temp E_pair E_mol TotEng Press
0 5.7410614e-11    202.82055    1897.6954     2100.516   -222.31072
Loop time of 7.81991e-07 on 1 procs for 0 steps with 188 atoms

undump          NiPyC2_relax_sc211_ortho_functionalized_O-CH2-CH2-CH3_restart
