data_NiPyC2_relax_sc211_meta_functionalized_N-C-O_pbesol_relax_PM
_symmetry_space_group_name_H-M	'P1'
_cell_length_a	12.505617
_cell_length_b	25.046824
_cell_length_c	20.553620
_cell_angle_alpha	90.000000
_cell_angle_beta	91.268973
_cell_angle_gamma	90.000000
_symmetry_Int_Tables_number 1

loop_
_symmetry_equiv_pos_as_xyz
'x,y,z'

loop_
_atom_site_label
_atom_site_type_symbol
_atom_site_fract_x
_atom_site_fract_y
_atom_site_fract_z
C1	C	0.282220	0.483119	0.265755
C2	C	0.033995	0.023755	0.016214
C3	C	0.388238	0.003355	0.271467
C4	C	0.137886	0.001282	0.024677
C5	C	0.455361	0.478428	0.317208
C6	C	0.203979	0.025080	0.071865
C7	C	0.209089	0.276188	0.264188
C8	C	0.465849	0.235537	0.019363
C9	C	0.243125	0.316819	0.308575
C10	C	0.499716	0.194236	0.062678
C11	C	0.246400	0.446103	0.313183
C12	C	0.998481	0.062191	0.062215
C13	C	0.416911	0.438411	0.358571
C14	C	0.165925	0.065939	0.112198
C15	C	0.084940	0.311973	0.365038
C16	C	0.332782	0.190059	0.109141
C17	C	0.045655	0.272301	0.322694
C18	C	0.295517	0.232526	0.070059
C19	C	0.108438	0.251477	0.273608
C20	C	0.361981	0.257571	0.025760
C21	C	0.429555	0.047819	0.232263
C22	C	0.177438	0.455332	0.487074
C23	C	0.069891	0.204460	0.237102
C24	C	0.322144	0.303837	0.487905
C25	C	0.786553	0.481364	0.261692
C26	C	0.535872	0.019568	0.009683
C27	C	0.888818	0.005065	0.271993
C28	C	0.640458	0.497715	0.016687
C29	C	0.954933	0.481679	0.319510
C30	C	0.707222	0.021750	0.063475
C31	C	0.721351	0.256258	0.274309
C32	C	0.949631	0.228158	0.013857
C33	C	0.757063	0.298743	0.313269
C34	C	0.987537	0.189635	0.059748
C35	C	0.753260	0.440465	0.304988
C36	C	0.501347	0.057987	0.055882
C37	C	0.918819	0.439377	0.358056
C38	C	0.670167	0.062653	0.104062
C39	C	0.588581	0.310642	0.357225
C40	C	0.841761	0.203957	0.125221
C41	C	0.548252	0.266555	0.320396
C42	C	0.805805	0.246240	0.085683
C43	C	0.615357	0.239441	0.276514
C44	C	0.860791	0.260429	0.029892
C45	C	0.927680	0.051871	0.236046
C46	C	0.681155	0.452383	0.478249
C47	C	0.573050	0.194748	0.237106
C48	C	0.822083	0.304494	0.488244
C49	C	0.128161	0.476220	0.197683
C50	C	0.882548	0.030701	0.445390
C51	C	0.363492	0.279721	0.200016
C52	C	0.619198	0.229527	0.455906
C53	C	0.633265	0.475019	0.193351
C54	C	0.380064	0.027101	0.443814
C55	C	0.382980	0.230925	0.365779
C56	C	0.052730	0.195522	0.428945
H1	H	0.034512	0.497435	0.329312
H2	H	0.285330	0.011128	0.080120
H3	H	0.321456	0.335004	0.303214
H4	H	0.061631	0.168242	0.050803
H5	H	0.162849	0.433716	0.312653
H6	H	0.418802	0.072008	0.053825
H7	H	0.468707	0.419079	0.394334
H8	H	0.216949	0.083962	0.149331
H9	H	0.038715	0.325970	0.405644
H10	H	0.282397	0.171715	0.145086
H11	H	0.214320	0.246562	0.076400
H12	H	0.538213	0.490748	0.323232
H13	H	0.788950	0.007942	0.070652
H14	H	0.778926	0.236092	0.244249
H15	H	0.839340	0.312449	0.313081
H16	H	0.581466	0.179243	0.060741
H17	H	0.672391	0.424362	0.300456
H18	H	0.916355	0.076728	0.059176
H19	H	0.968814	0.422113	0.396313
H20	H	0.721735	0.081244	0.140579
H21	H	0.537056	0.331273	0.390962
H22	H	0.797183	0.190163	0.166637
H23	H	0.967077	0.255799	0.331291
H24	H	0.733491	0.267359	0.098690
N1	N	0.311959	0.425384	0.358536
N2	N	0.062414	0.081602	0.109307
N3	N	0.184044	0.332552	0.358270
N4	N	0.435176	0.172727	0.106192
N5	N	0.817223	0.421135	0.351950
N6	N	0.566211	0.077904	0.102020
N7	N	0.691393	0.324800	0.354156
N8	N	0.934175	0.177831	0.113181
N9	N	0.214414	0.496032	0.216245
N10	N	0.968164	0.011292	0.465598
N11	N	0.274126	0.262895	0.215146
N12	N	0.533390	0.250173	0.471940
N13	N	0.719537	0.494893	0.212011
N14	N	0.467301	0.007005	0.460386
N15	N	0.446563	0.250573	0.328435
N16	N	0.995741	0.229872	0.454956
Ni1	Ni	0.249311	0.379312	0.426476
Ni2	Ni	0.500791	0.122427	0.170250
Ni3	Ni	0.753509	0.375384	0.418797
Ni4	Ni	0.999600	0.127903	0.177873
O1	O	0.124285	0.179056	0.194824
O2	O	0.377121	0.329711	0.446171
O3	O	0.375728	0.072860	0.187845
O4	O	0.122743	0.429928	0.443494
O5	O	0.477274	0.176997	0.242272
O6	O	0.226576	0.321788	0.494428
O7	O	0.022982	0.070214	0.245833
O8	O	0.272556	0.436726	0.496397
O9	O	0.628003	0.170689	0.193744
O10	O	0.877151	0.326223	0.443324
O11	O	0.872868	0.078085	0.193251
O12	O	0.626838	0.426330	0.435037
O13	O	0.976237	0.184829	0.246368
O14	O	0.727993	0.324325	0.493993
O15	O	0.525457	0.065365	0.240753
O16	O	0.777354	0.435192	0.486666
O17	O	0.049254	0.461060	0.172605
O18	O	0.804285	0.045416	0.419135
O19	O	0.445764	0.291764	0.178710
O20	O	0.697825	0.213244	0.433665
O21	O	0.553751	0.460047	0.168927
O22	O	0.299794	0.042434	0.420797
O23	O	0.315108	0.211332	0.395863
O24	O	0.102233	0.166129	0.397809
C57	C	0.282220	0.483119	0.765756
C58	C	0.033995	0.023755	0.516215
C59	C	0.388238	0.003355	0.771467
C60	C	0.137886	0.001282	0.524676
C61	C	0.455361	0.478428	0.817208
C62	C	0.203979	0.025080	0.571866
C63	C	0.209089	0.276188	0.764188
C64	C	0.465849	0.235537	0.519363
C65	C	0.243125	0.316819	0.808575
C66	C	0.499716	0.194236	0.562678
C67	C	0.246400	0.446103	0.813183
C68	C	0.998481	0.062191	0.562215
C69	C	0.416911	0.438411	0.858571
C70	C	0.165925	0.065939	0.612197
C71	C	0.084940	0.311973	0.865039
C72	C	0.332782	0.190059	0.609141
C73	C	0.045655	0.272301	0.822693
C74	C	0.295517	0.232526	0.570059
C75	C	0.108438	0.251477	0.773608
C76	C	0.361981	0.257571	0.525760
C77	C	0.429555	0.047819	0.732263
C78	C	0.177438	0.455332	0.987074
C79	C	0.069891	0.204460	0.737102
C80	C	0.322144	0.303837	0.987905
C81	C	0.786553	0.481364	0.761692
C82	C	0.535872	0.019568	0.509683
C83	C	0.888818	0.005065	0.771993
C84	C	0.640458	0.497715	0.516687
C85	C	0.954933	0.481679	0.819510
C86	C	0.707222	0.021750	0.563474
C87	C	0.721351	0.256258	0.774309
C88	C	0.949631	0.228158	0.513857
C89	C	0.757063	0.298743	0.813268
C90	C	0.987537	0.189635	0.559747
C91	C	0.753260	0.440465	0.804987
C92	C	0.501347	0.057987	0.555882
C93	C	0.918819	0.439377	0.858056
C94	C	0.670167	0.062653	0.604062
C95	C	0.588581	0.310642	0.857225
C96	C	0.841761	0.203957	0.625220
C97	C	0.548252	0.266555	0.820396
C98	C	0.805805	0.246240	0.585683
C99	C	0.615357	0.239441	0.776514
C100	C	0.860791	0.260429	0.529891
C101	C	0.927680	0.051871	0.736046
C102	C	0.681155	0.452383	0.978249
C103	C	0.573050	0.194748	0.737106
C104	C	0.822083	0.304494	0.988244
C105	C	0.128161	0.476220	0.697682
C106	C	0.882548	0.030701	0.945390
C107	C	0.363492	0.279721	0.700016
C108	C	0.619198	0.229527	0.955906
C109	C	0.633265	0.475019	0.693350
C110	C	0.380064	0.027101	0.943814
C111	C	0.382980	0.230925	0.865779
C112	C	0.052730	0.195522	0.928945
H25	H	0.034512	0.497435	0.829312
H26	H	0.285330	0.011128	0.580120
H27	H	0.321456	0.335004	0.803214
H28	H	0.061631	0.168242	0.550803
H29	H	0.162849	0.433716	0.812653
H30	H	0.418802	0.072008	0.553825
H31	H	0.468707	0.419079	0.894334
H32	H	0.216949	0.083962	0.649331
H33	H	0.038715	0.325970	0.905644
H34	H	0.282397	0.171715	0.645086
H35	H	0.214320	0.246562	0.576400
H36	H	0.538213	0.490748	0.823232
H37	H	0.788950	0.007942	0.570653
H38	H	0.778926	0.236092	0.744248
H39	H	0.839340	0.312449	0.813081
H40	H	0.581466	0.179243	0.560742
H41	H	0.672391	0.424362	0.800456
H42	H	0.916355	0.076728	0.559176
H43	H	0.968814	0.422113	0.896313
H44	H	0.721735	0.081244	0.640579
H45	H	0.537056	0.331273	0.890962
H46	H	0.797183	0.190163	0.666637
H47	H	0.967077	0.255799	0.831291
H48	H	0.733491	0.267359	0.598690
N17	N	0.311959	0.425384	0.858536
N18	N	0.062414	0.081602	0.609307
N19	N	0.184044	0.332552	0.858270
N20	N	0.435176	0.172727	0.606192
N21	N	0.817223	0.421135	0.851950
N22	N	0.566211	0.077904	0.602020
N23	N	0.691393	0.324800	0.854156
N24	N	0.934175	0.177831	0.613181
N25	N	0.214414	0.496032	0.716245
N26	N	0.968164	0.011292	0.965598
N27	N	0.274126	0.262895	0.715147
N28	N	0.533390	0.250173	0.971940
N29	N	0.719537	0.494893	0.712011
N30	N	0.467301	0.007005	0.960386
N31	N	0.446563	0.250573	0.828434
N32	N	0.995741	0.229872	0.954956
Ni5	Ni	0.249311	0.379312	0.926476
Ni6	Ni	0.500791	0.122427	0.670250
Ni7	Ni	0.753509	0.375384	0.918797
Ni8	Ni	0.999600	0.127903	0.677873
O25	O	0.124285	0.179056	0.694824
O26	O	0.377121	0.329711	0.946171
O27	O	0.375728	0.072860	0.687845
O28	O	0.122743	0.429928	0.943494
O29	O	0.477274	0.176997	0.742271
O30	O	0.226576	0.321788	0.994428
O31	O	0.022982	0.070214	0.745833
O32	O	0.272556	0.436726	0.996398
O33	O	0.628003	0.170689	0.693744
O34	O	0.877151	0.326223	0.943324
O35	O	0.872868	0.078085	0.693251
O36	O	0.626838	0.426330	0.935037
O37	O	0.976237	0.184829	0.746368
O38	O	0.727993	0.324325	0.993993
O39	O	0.525457	0.065365	0.740753
O40	O	0.777354	0.435192	0.986666
O41	O	0.049254	0.461060	0.672605
O42	O	0.804285	0.045416	0.919134
O43	O	0.445764	0.291764	0.678710
O44	O	0.697825	0.213244	0.933665
O45	O	0.553751	0.460047	0.668927
O46	O	0.299794	0.042434	0.920797
O47	O	0.315108	0.211332	0.895863
O48	O	0.102233	0.166129	0.897809
C113	C	0.282220	0.983119	0.265755
C114	C	0.033995	0.523755	0.016214
C115	C	0.388238	0.503355	0.271467
C116	C	0.137886	0.501282	0.024677
C117	C	0.455361	0.978428	0.317208
C118	C	0.203979	0.525080	0.071865
C119	C	0.209089	0.776188	0.264188
C120	C	0.465849	0.735537	0.019363
C121	C	0.243125	0.816819	0.308575
C122	C	0.499716	0.694236	0.062678
C123	C	0.246400	0.946103	0.313183
C124	C	0.998481	0.562191	0.062215
C125	C	0.416911	0.938411	0.358571
C126	C	0.165925	0.565939	0.112198
C127	C	0.084940	0.811973	0.365038
C128	C	0.332782	0.690059	0.109141
C129	C	0.045655	0.772301	0.322694
C130	C	0.295517	0.732526	0.070059
C131	C	0.108438	0.751477	0.273608
C132	C	0.361981	0.757571	0.025760
C133	C	0.429555	0.547819	0.232263
C134	C	0.177438	0.955332	0.487074
C135	C	0.069891	0.704460	0.237102
C136	C	0.322144	0.803837	0.487905
C137	C	0.786553	0.981364	0.261692
C138	C	0.535872	0.519568	0.009683
C139	C	0.888818	0.505065	0.271993
C140	C	0.640458	0.997715	0.016687
C141	C	0.954933	0.981680	0.319510
C142	C	0.707222	0.521749	0.063475
C143	C	0.721351	0.756258	0.274309
C144	C	0.949631	0.728158	0.013857
C145	C	0.757063	0.798743	0.313269
C146	C	0.987537	0.689635	0.059748
C147	C	0.753260	0.940465	0.304988
C148	C	0.501347	0.557987	0.055882
C149	C	0.918819	0.939377	0.358056
C150	C	0.670167	0.562653	0.104062
C151	C	0.588581	0.810642	0.357225
C152	C	0.841761	0.703956	0.125221
C153	C	0.548252	0.766555	0.320396
C154	C	0.805805	0.746239	0.085683
C155	C	0.615357	0.739441	0.276514
C156	C	0.860791	0.760429	0.029892
C157	C	0.927680	0.551871	0.236046
C158	C	0.681155	0.952383	0.478249
C159	C	0.573050	0.694748	0.237106
C160	C	0.822083	0.804494	0.488244
C161	C	0.128161	0.976220	0.197683
C162	C	0.882548	0.530702	0.445390
C163	C	0.363492	0.779721	0.200016
C164	C	0.619198	0.729527	0.455906
C165	C	0.633265	0.975019	0.193351
C166	C	0.380064	0.527101	0.443814
C167	C	0.382980	0.730924	0.365779
C168	C	0.052730	0.695522	0.428945
H49	H	0.034512	0.997435	0.329312
H50	H	0.285330	0.511128	0.080120
H51	H	0.321456	0.835004	0.303214
H52	H	0.061631	0.668242	0.050803
H53	H	0.162849	0.933716	0.312653
H54	H	0.418802	0.572008	0.053825
H55	H	0.468707	0.919079	0.394334
H56	H	0.216949	0.583962	0.149331
H57	H	0.038715	0.825970	0.405644
H58	H	0.282397	0.671715	0.145086
H59	H	0.214320	0.746563	0.076400
H60	H	0.538213	0.990748	0.323232
H61	H	0.788950	0.507942	0.070652
H62	H	0.778926	0.736092	0.244249
H63	H	0.839340	0.812450	0.313081
H64	H	0.581466	0.679243	0.060741
H65	H	0.672391	0.924362	0.300456
H66	H	0.916355	0.576728	0.059176
H67	H	0.968814	0.922113	0.396313
H68	H	0.721735	0.581244	0.140579
H69	H	0.537056	0.831273	0.390962
H70	H	0.797183	0.690163	0.166637
H71	H	0.967077	0.755799	0.331291
H72	H	0.733491	0.767359	0.098690
N33	N	0.311959	0.925384	0.358536
N34	N	0.062414	0.581602	0.109307
N35	N	0.184044	0.832552	0.358270
N36	N	0.435176	0.672727	0.106192
N37	N	0.817223	0.921135	0.351950
N38	N	0.566211	0.577904	0.102020
N39	N	0.691393	0.824801	0.354156
N40	N	0.934175	0.677831	0.113181
N41	N	0.214414	0.996032	0.216245
N42	N	0.968164	0.511292	0.465598
N43	N	0.274126	0.762895	0.215146
N44	N	0.533390	0.750174	0.471940
N45	N	0.719537	0.994892	0.212011
N46	N	0.467301	0.507005	0.460386
N47	N	0.446563	0.750573	0.328435
N48	N	0.995741	0.729872	0.454956
Ni9	Ni	0.249311	0.879312	0.426476
Ni10	Ni	0.500791	0.622428	0.170250
Ni11	Ni	0.753509	0.875384	0.418797
Ni12	Ni	0.999600	0.627903	0.177873
O49	O	0.124285	0.679056	0.194824
O50	O	0.377121	0.829711	0.446171
O51	O	0.375728	0.572860	0.187845
O52	O	0.122743	0.929928	0.443494
O53	O	0.477274	0.676997	0.242272
O54	O	0.226576	0.821789	0.494428
O55	O	0.022982	0.570214	0.245833
O56	O	0.272556	0.936726	0.496397
O57	O	0.628003	0.670689	0.193744
O58	O	0.877151	0.826223	0.443324
O59	O	0.872868	0.578085	0.193251
O60	O	0.626838	0.926330	0.435037
O61	O	0.976237	0.684829	0.246368
O62	O	0.727993	0.824326	0.493993
O63	O	0.525457	0.565365	0.240753
O64	O	0.777354	0.935191	0.486666
O65	O	0.049254	0.961060	0.172605
O66	O	0.804285	0.545416	0.419135
O67	O	0.445764	0.791764	0.178710
O68	O	0.697825	0.713244	0.433665
O69	O	0.553751	0.960047	0.168927
O70	O	0.299794	0.542435	0.420797
O71	O	0.315108	0.711332	0.395863
O72	O	0.102233	0.666129	0.397809
C169	C	0.282220	0.983119	0.765756
C170	C	0.033995	0.523755	0.516215
C171	C	0.388238	0.503355	0.771467
C172	C	0.137886	0.501282	0.524676
C173	C	0.455361	0.978428	0.817208
C174	C	0.203979	0.525080	0.571866
C175	C	0.209089	0.776188	0.764188
C176	C	0.465849	0.735537	0.519363
C177	C	0.243125	0.816819	0.808575
C178	C	0.499716	0.694236	0.562678
C179	C	0.246400	0.946103	0.813183
C180	C	0.998481	0.562191	0.562215
C181	C	0.416911	0.938411	0.858571
C182	C	0.165925	0.565939	0.612197
C183	C	0.084940	0.811973	0.865039
C184	C	0.332782	0.690059	0.609141
C185	C	0.045655	0.772301	0.822693
C186	C	0.295517	0.732526	0.570059
C187	C	0.108438	0.751477	0.773608
C188	C	0.361981	0.757571	0.525760
C189	C	0.429555	0.547819	0.732263
C190	C	0.177438	0.955332	0.987074
C191	C	0.069891	0.704460	0.737102
C192	C	0.322144	0.803837	0.987905
C193	C	0.786553	0.981364	0.761692
C194	C	0.535872	0.519568	0.509683
C195	C	0.888818	0.505065	0.771993
C196	C	0.640458	0.997715	0.516687
C197	C	0.954933	0.981680	0.819510
C198	C	0.707222	0.521749	0.563474
C199	C	0.721351	0.756258	0.774309
C200	C	0.949631	0.728158	0.513857
C201	C	0.757063	0.798743	0.813268
C202	C	0.987537	0.689635	0.559747
C203	C	0.753260	0.940465	0.804987
C204	C	0.501347	0.557987	0.555882
C205	C	0.918819	0.939377	0.858056
C206	C	0.670167	0.562653	0.604062
C207	C	0.588581	0.810642	0.857225
C208	C	0.841761	0.703956	0.625220
C209	C	0.548252	0.766555	0.820396
C210	C	0.805805	0.746239	0.585683
C211	C	0.615357	0.739441	0.776514
C212	C	0.860791	0.760429	0.529891
C213	C	0.927680	0.551871	0.736046
C214	C	0.681155	0.952383	0.978249
C215	C	0.573050	0.694748	0.737106
C216	C	0.822083	0.804494	0.988244
C217	C	0.128161	0.976220	0.697682
C218	C	0.882548	0.530702	0.945390
C219	C	0.363492	0.779721	0.700016
C220	C	0.619198	0.729527	0.955906
C221	C	0.633265	0.975019	0.693350
C222	C	0.380064	0.527101	0.943814
C223	C	0.382980	0.730924	0.865779
C224	C	0.052730	0.695522	0.928945
H73	H	0.034512	0.997435	0.829312
H74	H	0.285330	0.511128	0.580120
H75	H	0.321456	0.835004	0.803214
H76	H	0.061631	0.668242	0.550803
H77	H	0.162849	0.933716	0.812653
H78	H	0.418802	0.572008	0.553825
H79	H	0.468707	0.919079	0.894334
H80	H	0.216949	0.583962	0.649331
H81	H	0.038715	0.825970	0.905644
H82	H	0.282397	0.671715	0.645086
H83	H	0.214320	0.746563	0.576400
H84	H	0.538213	0.990748	0.823232
H85	H	0.788950	0.507942	0.570653
H86	H	0.778926	0.736092	0.744248
H87	H	0.839340	0.812450	0.813081
H88	H	0.581466	0.679243	0.560742
H89	H	0.672391	0.924362	0.800456
H90	H	0.916355	0.576728	0.559176
H91	H	0.968814	0.922113	0.896313
H92	H	0.721735	0.581244	0.640579
H93	H	0.537056	0.831273	0.890962
H94	H	0.797183	0.690163	0.666637
H95	H	0.967077	0.755799	0.831291
H96	H	0.733491	0.767359	0.598690
N49	N	0.311959	0.925384	0.858536
N50	N	0.062414	0.581602	0.609307
N51	N	0.184044	0.832552	0.858270
N52	N	0.435176	0.672727	0.606192
N53	N	0.817223	0.921135	0.851950
N54	N	0.566211	0.577904	0.602020
N55	N	0.691393	0.824801	0.854156
N56	N	0.934175	0.677831	0.613181
N57	N	0.214414	0.996032	0.716245
N58	N	0.968164	0.511292	0.965598
N59	N	0.274126	0.762895	0.715147
N60	N	0.533390	0.750174	0.971940
N61	N	0.719537	0.994892	0.712011
N62	N	0.467301	0.507005	0.960386
N63	N	0.446563	0.750573	0.828434
N64	N	0.995741	0.729872	0.954956
Ni13	Ni	0.249311	0.879312	0.926476
Ni14	Ni	0.500791	0.622428	0.670250
Ni15	Ni	0.753509	0.875384	0.918797
Ni16	Ni	0.999600	0.627903	0.677873
O73	O	0.124285	0.679056	0.694824
O74	O	0.377121	0.829711	0.946171
O75	O	0.375728	0.572860	0.687845
O76	O	0.122743	0.929928	0.943494
O77	O	0.477274	0.676997	0.742271
O78	O	0.226576	0.821789	0.994428
O79	O	0.022982	0.570214	0.745833
O80	O	0.272556	0.936726	0.996398
O81	O	0.628003	0.670689	0.693744
O82	O	0.877151	0.826223	0.943324
O83	O	0.872868	0.578085	0.693251
O84	O	0.626838	0.926330	0.935037
O85	O	0.976237	0.684829	0.746368
O86	O	0.727993	0.824326	0.993993
O87	O	0.525457	0.565365	0.740753
O88	O	0.777354	0.935191	0.986666
O89	O	0.049254	0.961060	0.672605
O90	O	0.804285	0.545416	0.919134
O91	O	0.445764	0.791764	0.678710
O92	O	0.697825	0.713244	0.933665
O93	O	0.553751	0.960047	0.668927
O94	O	0.299794	0.542435	0.920797
O95	O	0.315108	0.711332	0.895863
O96	O	0.102233	0.666129	0.897809
