units           real
atom_style      full
boundary        p p p

pair_style      lj/cut 5.000
bond_style      harmonic
angle_style     hybrid fourier cosine/periodic
dihedral_style  harmonic
improper_style  fourier

dielectric      1.0
pair_modify     tail yes mix arithmetic
special_bonds   lj/coul 0.0 0.0 1.0
box tilt        large
read_data       data.NiPyC2_relax_sc211_meta_functionalized_SH
  triclinic box = (0 0 0) to (12.5056 12.5234 10.2743) with tilt (0 -0.227594 0)
  reading atoms ...
  116 atoms
  scanning bonds ...
  scanning angles ...
  scanning dihedrals ...
  scanning impropers ...
  reading bonds ...
  136 bonds
  reading angles ...
  252 angles
  reading dihedrals ...
  272 dihedrals
  reading impropers ...
  168 impropers

#### Atom Groupings ####
group           fram     id   1:116
116 atoms in group fram
#### END Atom Groupings ####

dump            NiPyC2_relax_sc211_meta_functionalized_SH_xyzmov all xyz 20000 NiPyC2_relax_sc211_meta_functionalized_SH_mov.xyz
dump_modify     NiPyC2_relax_sc211_meta_functionalized_SH_xyzmov element Ni O N C H S
min_style       cg
print           "MinStep,CellMinStep,AtomMinStep,FinalStep,Energy,EDiff" file NiPyC2_relax_sc211_meta_functionalized_SH.min.csv screen no
variable        min_eval   equal 1.00e-06
variable        prev_E     equal 50000.00
variable        iter       loop 100000
label           loop_min
min_style       cg
fix             1 all box/relax aniso 0.0 vmax 0.01
minimize        1.0e-15 1.0e-15 10000 100000
  update every 1 steps, delay 0 steps, check yes
Step Temp E_pair E_mol TotEng Press Volume
0            0    49803.045    2450.6484    52253.694    8439745.3    1609.0819
Loop time of 0.079632 on 1 procs for 261 steps with 116 atoms

Minimization stats:
  Stopping criterion = linesearch alpha is zero
  Energy initial, next-to-last, final =
  Force two-norm initial, final = 649783 75.2404
  Force max component initial, final = 297224 39.9592
  Final line search alpha, max atom move = 2.00163e-12 7.99834e-11
  Iterations, force evaluations = 261 531

unfix           1
min_style       fire
variable        tempstp    equal $(step)
variable        tempstp    equal 261
variable        CellMinStep equal 261
minimize        1.0e-15 1.0e-15 10000 100000
  Parameters for fire:
    dmax delaystep dtgrow dtshrink alpha0 alphashrink tmax tmin    integrator halfstepback
     0.1        20    1.1      0.5   0.25        0.99   10 0.02 eulerimplicit          yes
Step Temp E_pair E_mol TotEng Press
261            0     77.51319    1498.6653    1576.1785    1334.4338
Loop time of 1.17276 on 1 procs for 10000 steps with 116 atoms

Minimization stats:
  Stopping criterion = max iterations
  Energy initial, next-to-last, final =
  Force two-norm initial, final = 53.0187 1.54423
  Force max component initial, final = 9.21991 0.37871
  Final line search alpha, max atom move = 0 0
  Iterations, force evaluations = 10000 10000

variable        AtomMinStep equal 261
variable        temppe     equal $(pe)
variable        temppe     equal 1546.8769795680555035
variable        min_E      equal abs(50000-1546.87697956806)
variable        prev_E     equal 1546.87697956806
next            iter
jump            SELF loop_min
min_style       cg
fix             1 all box/relax aniso 0.0 vmax 0.01
minimize        1.0e-15 1.0e-15 10000 100000
Step Temp E_pair E_mol TotEng Press Volume
10261  0.032872655    67.824191    1479.0528    1546.8882   -5407.5482    1535.7427
Loop time of 0.00776206 on 1 procs for 3 steps with 116 atoms

Minimization stats:
  Stopping criterion = linesearch alpha is zero
  Energy initial, next-to-last, final =
  Force two-norm initial, final = 250.019 27.9417
  Force max component initial, final = 219.005 18.9607
  Final line search alpha, max atom move = 1.59411e-11 3.02254e-10
  Iterations, force evaluations = 3 55

unfix           1
min_style       fire
variable        tempstp    equal $(step)
variable        tempstp    equal 10264
variable        CellMinStep equal 10264
minimize        1.0e-15 1.0e-15 10000 100000
  Parameters for fire:
    dmax delaystep dtgrow dtshrink alpha0 alphashrink tmax tmin    integrator halfstepback
     0.1        20    1.1      0.5   0.25        0.99   10 0.02 eulerimplicit          yes
Step Temp E_pair E_mol TotEng Press
10264            0    71.444387    1475.0958    1546.5402   -76.318411
Loop time of 1.17264 on 1 procs for 10000 steps with 116 atoms

Minimization stats:
  Stopping criterion = max iterations
  Energy initial, next-to-last, final =
  Force two-norm initial, final = 18.0314 4.47487e-05
  Force max component initial, final = 3.21826 2.53169e-05
  Final line search alpha, max atom move = 0 0
  Iterations, force evaluations = 10000 10000

variable        AtomMinStep equal 10264
variable        temppe     equal $(pe)
variable        temppe     equal 1522.4172784135753318
variable        min_E      equal abs(1546.87697956806-1522.41727841358)
variable        prev_E     equal 1522.41727841358
next            iter
jump            SELF loop_min
min_style       cg
fix             1 all box/relax aniso 0.0 vmax 0.01
minimize        1.0e-15 1.0e-15 10000 100000
Step Temp E_pair E_mol TotEng Press Volume
20264 2.8755529e-11    48.385248     1474.032    1522.4173   -9406.0573     1530.722
Loop time of 0.00910682 on 1 procs for 6 steps with 116 atoms

Minimization stats:
  Stopping criterion = linesearch alpha is zero
  Energy initial, next-to-last, final =
  Force two-norm initial, final = 374.331 29.0203
  Force max component initial, final = 263.142 6.59631
  Final line search alpha, max atom move = 1.1097e-11 7.3199e-11
  Iterations, force evaluations = 6 65

unfix           1
min_style       fire
variable        tempstp    equal $(step)
variable        tempstp    equal 20270
variable        CellMinStep equal 20270
minimize        1.0e-15 1.0e-15 10000 100000
  Parameters for fire:
    dmax delaystep dtgrow dtshrink alpha0 alphashrink tmax tmin    integrator halfstepback
     0.1        20    1.1      0.5   0.25        0.99   10 0.02 eulerimplicit          yes
Step Temp E_pair E_mol TotEng Press
20270            0    55.598808    1465.6522     1521.251    26.115346
Loop time of 0.368273 on 1 procs for 3124 steps with 116 atoms

Minimization stats:
  Stopping criterion = energy tolerance
  Energy initial, next-to-last, final =
  Force two-norm initial, final = 28.0311 3.06734e-05
  Force max component initial, final = 3.5032 1.90182e-05
  Final line search alpha, max atom move = 0 0
  Iterations, force evaluations = 3124 3124

variable        AtomMinStep equal 20270
variable        temppe     equal $(pe)
variable        temppe     equal 1520.7208257456441061
variable        min_E      equal abs(1522.41727841358-1520.72082574564)
variable        prev_E     equal 1520.72082574564
next            iter
jump            SELF loop_min
min_style       cg
fix             1 all box/relax aniso 0.0 vmax 0.01
minimize        1.0e-15 1.0e-15 10000 100000
Step Temp E_pair E_mol TotEng Press Volume
23394 1.7736625e-10    51.322443    1469.3984    1520.7208   -4359.2761    1516.9333
Loop time of 0.00858214 on 1 procs for 2 steps with 116 atoms

Minimization stats:
  Stopping criterion = linesearch alpha is zero
  Energy initial, next-to-last, final =
  Force two-norm initial, final = 192.471 22.9673
  Force max component initial, final = 160.198 12.6443
  Final line search alpha, max atom move = 1.19935e-11 1.5165e-10
  Iterations, force evaluations = 2 55

unfix           1
min_style       fire
variable        tempstp    equal $(step)
variable        tempstp    equal 23396
variable        CellMinStep equal 23396
minimize        1.0e-15 1.0e-15 10000 100000
  Parameters for fire:
    dmax delaystep dtgrow dtshrink alpha0 alphashrink tmax tmin    integrator halfstepback
     0.1        20    1.1      0.5   0.25        0.99   10 0.02 eulerimplicit          yes
Step Temp E_pair E_mol TotEng Press
23396            0    53.780361    1466.7282    1520.5086    83.031968
Loop time of 0.308492 on 1 procs for 2611 steps with 116 atoms

Minimization stats:
  Stopping criterion = energy tolerance
  Energy initial, next-to-last, final =
  Force two-norm initial, final = 15.3708 2.50197e-05
  Force max component initial, final = 2.71587 1.53373e-05
  Final line search alpha, max atom move = 0 0
  Iterations, force evaluations = 2611 2611

variable        AtomMinStep equal 23396
variable        temppe     equal $(pe)
variable        temppe     equal 1520.2908818861483269
variable        min_E      equal abs(1520.72082574564-1520.29088188615)
variable        prev_E     equal 1520.29088188615
next            iter
jump            SELF loop_min
min_style       cg
fix             1 all box/relax aniso 0.0 vmax 0.01
minimize        1.0e-15 1.0e-15 10000 100000
Step Temp E_pair E_mol TotEng Press Volume
26007 1.1076593e-10    52.048542    1468.2423    1520.2909   -2970.1322    1512.8061
Loop time of 0.00806802 on 1 procs for 3 steps with 116 atoms

Minimization stats:
  Stopping criterion = linesearch alpha is zero
  Energy initial, next-to-last, final =
  Force two-norm initial, final = 153.167 16.4637
  Force max component initial, final = 140.046 6.71693
  Final line search alpha, max atom move = 4.22885e-11 2.84049e-10
  Iterations, force evaluations = 3 57

unfix           1
min_style       fire
variable        tempstp    equal $(step)
variable        tempstp    equal 26010
variable        CellMinStep equal 26010
minimize        1.0e-15 1.0e-15 10000 100000
  Parameters for fire:
    dmax delaystep dtgrow dtshrink alpha0 alphashrink tmax tmin    integrator halfstepback
     0.1        20    1.1      0.5   0.25        0.99   10 0.02 eulerimplicit          yes
Step Temp E_pair E_mol TotEng Press
26010            0    53.467306    1466.6296     1520.097   -87.922234
Loop time of 0.253717 on 1 procs for 2149 steps with 116 atoms

Minimization stats:
  Stopping criterion = energy tolerance
  Energy initial, next-to-last, final =
  Force two-norm initial, final = 14.1621 3.05627e-05
  Force max component initial, final = 2.48429 1.8815e-05
  Final line search alpha, max atom move = 0 0
  Iterations, force evaluations = 2149 2149

variable        AtomMinStep equal 26010
variable        temppe     equal $(pe)
variable        temppe     equal 1520.0578164444239064
variable        min_E      equal abs(1520.29088188615-1520.05781644442)
variable        prev_E     equal 1520.05781644442
next            iter
jump            SELF loop_min
min_style       cg
fix             1 all box/relax aniso 0.0 vmax 0.01
minimize        1.0e-15 1.0e-15 10000 100000
Step Temp E_pair E_mol TotEng Press Volume
28159 1.7103958e-10    52.386045    1467.6718    1520.0578   -2322.7766    1510.6152
Loop time of 0.00944929 on 1 procs for 8 steps with 116 atoms

Minimization stats:
  Stopping criterion = linesearch alpha is zero
  Energy initial, next-to-last, final =
  Force two-norm initial, final = 136.872 32.0211
  Force max component initial, final = 128.847 24.472
  Final line search alpha, max atom move = 1.16892e-11 2.86059e-10
  Iterations, force evaluations = 8 65

unfix           1
min_style       fire
variable        tempstp    equal $(step)
variable        tempstp    equal 28167
variable        CellMinStep equal 28167
minimize        1.0e-15 1.0e-15 10000 100000
  Parameters for fire:
    dmax delaystep dtgrow dtshrink alpha0 alphashrink tmax tmin    integrator halfstepback
     0.1        20    1.1      0.5   0.25        0.99   10 0.02 eulerimplicit          yes
Step Temp E_pair E_mol TotEng Press
28167            0    54.215369    1465.2823    1519.4977   -325.47732
Loop time of 0.292773 on 1 procs for 2467 steps with 116 atoms

Minimization stats:
  Stopping criterion = energy tolerance
  Energy initial, next-to-last, final =
  Force two-norm initial, final = 20.3734 2.80233e-05
  Force max component initial, final = 3.15292 1.66276e-05
  Final line search alpha, max atom move = 0 0
  Iterations, force evaluations = 2467 2467

variable        AtomMinStep equal 28167
variable        temppe     equal $(pe)
variable        temppe     equal 1519.2929860330648353
variable        min_E      equal abs(1520.05781644442-1519.29298603306)
variable        prev_E     equal 1519.29298603306
next            iter
jump            SELF loop_min
min_style       cg
fix             1 all box/relax aniso 0.0 vmax 0.01
minimize        1.0e-15 1.0e-15 10000 100000
Step Temp E_pair E_mol TotEng Press Volume
30634 1.648009e-10    52.440999     1466.852     1519.293   -1503.7471    1506.3337
Loop time of 0.00789924 on 1 procs for 3 steps with 116 atoms

Minimization stats:
  Stopping criterion = linesearch alpha is zero
  Energy initial, next-to-last, final =
  Force two-norm initial, final = 111.122 12.9614
  Force max component initial, final = 104.831 4.51955
  Final line search alpha, max atom move = 5.99613e-11 2.70998e-10
  Iterations, force evaluations = 3 55

unfix           1
min_style       fire
variable        tempstp    equal $(step)
variable        tempstp    equal 30637
variable        CellMinStep equal 30637
minimize        1.0e-15 1.0e-15 10000 100000
  Parameters for fire:
    dmax delaystep dtgrow dtshrink alpha0 alphashrink tmax tmin    integrator halfstepback
     0.1        20    1.1      0.5   0.25        0.99   10 0.02 eulerimplicit          yes
Step Temp E_pair E_mol TotEng Press
30637            0    52.899539    1466.2582    1519.1577   -146.67724
Loop time of 0.188344 on 1 procs for 1576 steps with 116 atoms

Minimization stats:
  Stopping criterion = energy tolerance
  Energy initial, next-to-last, final =
  Force two-norm initial, final = 11.3224 3.20652e-05
  Force max component initial, final = 1.96898 1.94792e-05
  Final line search alpha, max atom move = 0 0
  Iterations, force evaluations = 1576 1576

variable        AtomMinStep equal 30637
variable        temppe     equal $(pe)
variable        temppe     equal 1519.1669540943569245
variable        min_E      equal abs(1519.29298603306-1519.16695409436)
variable        prev_E     equal 1519.16695409436
next            iter
jump            SELF loop_min
min_style       cg
fix             1 all box/relax aniso 0.0 vmax 0.01
minimize        1.0e-15 1.0e-15 10000 100000
Step Temp E_pair E_mol TotEng Press Volume
32213 1.9457461e-10    52.395656    1466.7713     1519.167   -1485.3473    1505.7145
Loop time of 0.00956504 on 1 procs for 8 steps with 116 atoms

Minimization stats:
  Stopping criterion = linesearch alpha is zero
  Energy initial, next-to-last, final =
  Force two-norm initial, final = 106.9 27.0905
  Force max component initial, final = 100.678 15.7807
  Final line search alpha, max atom move = 1.32896e-11 2.09719e-10
  Iterations, force evaluations = 8 65

unfix           1
min_style       fire
variable        tempstp    equal $(step)
variable        tempstp    equal 32221
variable        CellMinStep equal 32221
minimize        1.0e-15 1.0e-15 10000 100000
  Parameters for fire:
    dmax delaystep dtgrow dtshrink alpha0 alphashrink tmax tmin    integrator halfstepback
     0.1        20    1.1      0.5   0.25        0.99   10 0.02 eulerimplicit          yes
Step Temp E_pair E_mol TotEng Press
32221            0    53.654392    1465.0326     1518.687    88.614425
Loop time of 0.231032 on 1 procs for 1946 steps with 116 atoms

Minimization stats:
  Stopping criterion = energy tolerance
  Energy initial, next-to-last, final =
  Force two-norm initial, final = 15.8596 2.76262e-05
  Force max component initial, final = 2.34848 1.67516e-05
  Final line search alpha, max atom move = 0 0
  Iterations, force evaluations = 1946 1946

variable        AtomMinStep equal 32221
variable        temppe     equal $(pe)
variable        temppe     equal 1518.5783270223898853
variable        min_E      equal abs(1519.16695409436-1518.57832702239)
variable        prev_E     equal 1518.57832702239
next            iter
jump            SELF loop_min
min_style       cg
fix             1 all box/relax aniso 0.0 vmax 0.01
minimize        1.0e-15 1.0e-15 10000 100000
Step Temp E_pair E_mol TotEng Press Volume
34167 1.3783666e-10    52.327887    1466.2504    1518.5783   -999.07538    1502.6264
Loop time of 0.0111096 on 1 procs for 12 steps with 116 atoms

Minimization stats:
  Stopping criterion = linesearch alpha is zero
  Energy initial, next-to-last, final =
  Force two-norm initial, final = 89.3498 36.532
  Force max component initial, final = 82.5857 22.7849
  Final line search alpha, max atom move = 6.49553e-12 1.48e-10
  Iterations, force evaluations = 12 77

unfix           1
min_style       fire
variable        tempstp    equal $(step)
variable        tempstp    equal 34179
variable        CellMinStep equal 34179
minimize        1.0e-15 1.0e-15 10000 100000
  Parameters for fire:
    dmax delaystep dtgrow dtshrink alpha0 alphashrink tmax tmin    integrator halfstepback
     0.1        20    1.1      0.5   0.25        0.99   10 0.02 eulerimplicit          yes
Step Temp E_pair E_mol TotEng Press
34179            0    53.904268    1464.2164    1518.1207    677.91127
Loop time of 0.28791 on 1 procs for 2397 steps with 116 atoms

Minimization stats:
  Stopping criterion = energy tolerance
  Energy initial, next-to-last, final =
  Force two-norm initial, final = 19.9305 4.13538e-05
  Force max component initial, final = 3.46052 1.02761e-05
  Final line search alpha, max atom move = 0 0
  Iterations, force evaluations = 2397 2397

variable        AtomMinStep equal 34179
variable        temppe     equal $(pe)
variable        temppe     equal 1517.8389732217119672
variable        min_E      equal abs(1518.57832702239-1517.83897322171)
variable        prev_E     equal 1517.83897322171
next            iter
jump            SELF loop_min
min_style       cg
fix             1 all box/relax aniso 0.0 vmax 0.01
minimize        1.0e-15 1.0e-15 10000 100000
Step Temp E_pair E_mol TotEng Press Volume
36576 1.8422366e-10    52.217556    1465.6214     1517.839   -376.74213    1498.6132
Loop time of 0.00881675 on 1 procs for 4 steps with 116 atoms

Minimization stats:
  Stopping criterion = linesearch alpha is zero
  Energy initial, next-to-last, final =
  Force two-norm initial, final = 67.3671 15.724
  Force max component initial, final = 58.4213 13.7005
  Final line search alpha, max atom move = 3.78845e-11 5.19037e-10
  Iterations, force evaluations = 4 61

unfix           1
min_style       fire
variable        tempstp    equal $(step)
variable        tempstp    equal 36580
variable        CellMinStep equal 36580
minimize        1.0e-15 1.0e-15 10000 100000
  Parameters for fire:
    dmax delaystep dtgrow dtshrink alpha0 alphashrink tmax tmin    integrator halfstepback
     0.1        20    1.1      0.5   0.25        0.99   10 0.02 eulerimplicit          yes
Step Temp E_pair E_mol TotEng Press
36580            0     52.27991    1465.4262    1517.7061    201.01471
Loop time of 0.206838 on 1 procs for 1728 steps with 116 atoms

Minimization stats:
  Stopping criterion = energy tolerance
  Energy initial, next-to-last, final =
  Force two-norm initial, final = 7.56261 3.56865e-05
  Force max component initial, final = 1.2237 1.25761e-05
  Final line search alpha, max atom move = 0 0
  Iterations, force evaluations = 1728 1728

variable        AtomMinStep equal 36580
variable        temppe     equal $(pe)
variable        temppe     equal 1517.7020272011393445
variable        min_E      equal abs(1517.83897322171-1517.70202720114)
variable        prev_E     equal 1517.70202720114
next            iter
jump            SELF loop_min
min_style       cg
fix             1 all box/relax aniso 0.0 vmax 0.01
minimize        1.0e-15 1.0e-15 10000 100000
Step Temp E_pair E_mol TotEng Press Volume
38308 2.2287919e-10    52.011115    1465.6909     1517.702   -522.41123     1498.596
Loop time of 0.00826172 on 1 procs for 1 steps with 116 atoms

Minimization stats:
  Stopping criterion = linesearch alpha is zero
  Energy initial, next-to-last, final =
  Force two-norm initial, final = 64.3823 64.3823
  Force max component initial, final = 57.7607 57.7607
  Final line search alpha, max atom move = 2.57981e-12 1.49012e-10
  Iterations, force evaluations = 1 53

unfix           1
min_style       fire
variable        tempstp    equal $(step)
variable        tempstp    equal 38309
variable        CellMinStep equal 38309
minimize        1.0e-15 1.0e-15 10000 100000
  Parameters for fire:
    dmax delaystep dtgrow dtshrink alpha0 alphashrink tmax tmin    integrator halfstepback
     0.1        20    1.1      0.5   0.25        0.99   10 0.02 eulerimplicit          yes
Step Temp E_pair E_mol TotEng Press
38309            0    52.011115    1465.6909     1517.702   -522.41123
Loop time of 0.00725315 on 1 procs for 55 steps with 116 atoms

Minimization stats:
  Stopping criterion = energy tolerance
  Energy initial, next-to-last, final =
  Force two-norm initial, final = 3.56865e-05 3.01841e-05
  Force max component initial, final = 1.25761e-05 1.06982e-05
  Final line search alpha, max atom move = 0 0
  Iterations, force evaluations = 55 55

variable        AtomMinStep equal 38309
variable        temppe     equal $(pe)
variable        temppe     equal 1517.7020272010242934
variable        min_E      equal abs(1517.70202720114-1517.70202720102)
jump SELF break_min
undump          NiPyC2_relax_sc211_meta_functionalized_SH_xyzmov

# Dump last snapshot for restart
variable curr_lx equal lx
variable curr_ly equal ly
variable curr_lz equal lz
change_box all x final 0 13.3924985192048 y final 0 10.2449099913003 z final 0 10.9223181075468
  triclinic box = (0 1.13925 -0.32402) to (13.3925 11.3842 10.5983) with tilt (0 -0.241949 0)
  triclinic box = (0 0 -0.32402) to (13.3925 10.2449 10.5983) with tilt (0 -0.241949 0)
  triclinic box = (0 0 0) to (13.3925 10.2449 10.9223) with tilt (0 -0.241949 0)

reset_timestep 0
dump            NiPyC2_relax_sc211_meta_functionalized_SH_restart all atom 1 NiPyC2_relax_sc211_meta_functionalized_SH_restart.lammpstrj
dump_modify     NiPyC2_relax_sc211_meta_functionalized_SH_restart scale no sort id
run 0
Step Temp E_pair E_mol TotEng Press
0 1.5744433e-10    52.011118    1465.6909     1517.702   -522.41068
Loop time of 8.11997e-07 on 1 procs for 0 steps with 116 atoms

undump          NiPyC2_relax_sc211_meta_functionalized_SH_restart
