units           real
atom_style      full
boundary        p p p

pair_style      lj/cut 5.000
bond_style      harmonic
angle_style     hybrid cosine/periodic fourier
dihedral_style  harmonic
improper_style  fourier

pair_modify     tail yes mix arithmetic
dielectric      1.0
special_bonds   lj/coul 0.0 0.0 1.0
box tilt        large
read_data       data.NiPyC2_relax_sc211_ortho_functionalized_SH
  triclinic box = (0 0 0) to (12.5056 12.5234 10.2743) with tilt (0 -0.227594 0)
  reading atoms ...
  116 atoms
  scanning bonds ...
  scanning angles ...
  scanning dihedrals ...
  scanning impropers ...
  reading bonds ...
  136 bonds
  reading angles ...
  252 angles
  reading dihedrals ...
  272 dihedrals
  reading impropers ...
  168 impropers

#### Atom Groupings ####
group           fram     id   1:116
116 atoms in group fram
#### END Atom Groupings ####

dump            NiPyC2_relax_sc211_ortho_functionalized_SH_xyzmov all xyz 20000 NiPyC2_relax_sc211_ortho_functionalized_SH_mov.xyz
dump_modify     NiPyC2_relax_sc211_ortho_functionalized_SH_xyzmov element Ni O N C H S
min_style       cg
print           "MinStep,CellMinStep,AtomMinStep,FinalStep,Energy,EDiff" file NiPyC2_relax_sc211_ortho_functionalized_SH.min.csv screen no
variable        min_eval   equal 1.00e-06
variable        prev_E     equal 50000.00
variable        iter       loop 100000
label           loop_min
min_style       cg
fix             1 all box/relax aniso 0.0 vmax 0.01
minimize        1.0e-15 1.0e-15 10000 100000
  update every 1 steps, delay 0 steps, check yes
Step Temp E_pair E_mol TotEng Press Volume
0            0     7962.589    2452.8672    10415.456    1301150.7    1609.0819
Loop time of 0.0559894 on 1 procs for 137 steps with 116 atoms

Minimization stats:
  Stopping criterion = linesearch alpha is zero
  Energy initial, next-to-last, final =
  Force two-norm initial, final = 75407.6 1137.84
  Force max component initial, final = 66604.4 747.014
  Final line search alpha, max atom move = 6.32782e-15 4.72697e-12
  Iterations, force evaluations = 137 386

unfix           1
min_style       fire
variable        tempstp    equal $(step)
variable        tempstp    equal 137
variable        CellMinStep equal 137
minimize        1.0e-15 1.0e-15 10000 100000
  Parameters for fire:
    dmax delaystep dtgrow dtshrink alpha0 alphashrink tmax tmin    integrator halfstepback
     0.1        20    1.1      0.5   0.25        0.99   10 0.02 eulerimplicit          yes
Step Temp E_pair E_mol TotEng Press
137            0    121.41044    1581.4462    1702.8566    34.278169
Loop time of 1.14563 on 1 procs for 10000 steps with 116 atoms

Minimization stats:
  Stopping criterion = max iterations
  Energy initial, next-to-last, final =
  Force two-norm initial, final = 1137.53 1473.71
  Force max component initial, final = 747.014 1013.05
  Final line search alpha, max atom move = 0 0
  Iterations, force evaluations = 10000 10000

variable        AtomMinStep equal 137
variable        temppe     equal $(pe)
variable        temppe     equal 1690.979048075965693
variable        min_E      equal abs(50000-1690.97904807597)
variable        prev_E     equal 1690.97904807597
next            iter
jump            SELF loop_min
min_style       cg
fix             1 all box/relax aniso 0.0 vmax 0.01
minimize        1.0e-15 1.0e-15 10000 100000
Step Temp E_pair E_mol TotEng Press Volume
10137   0.23717365    119.80076    1571.1783    1691.0603   -378.65465    1618.1676
Loop time of 0.0215458 on 1 procs for 10 steps with 116 atoms

Minimization stats:
  Stopping criterion = linesearch alpha is zero
  Energy initial, next-to-last, final =
  Force two-norm initial, final = 1476.17 678.559
  Force max component initial, final = 1013.05 420.755
  Final line search alpha, max atom move = 4.67723e-14 1.96797e-11
  Iterations, force evaluations = 10 156

unfix           1
min_style       fire
variable        tempstp    equal $(step)
variable        tempstp    equal 10147
variable        CellMinStep equal 10147
minimize        1.0e-15 1.0e-15 10000 100000
  Parameters for fire:
    dmax delaystep dtgrow dtshrink alpha0 alphashrink tmax tmin    integrator halfstepback
     0.1        20    1.1      0.5   0.25        0.99   10 0.02 eulerimplicit          yes
Step Temp E_pair E_mol TotEng Press
10147            0    120.48964    1570.2677    1690.7574    208.65819
Loop time of 0.372312 on 1 procs for 3304 steps with 116 atoms

Minimization stats:
  Stopping criterion = energy tolerance
  Energy initial, next-to-last, final =
  Force two-norm initial, final = 678.369 5.17146e-05
  Force max component initial, final = 420.755 9.09824e-06
  Final line search alpha, max atom move = 0 0
  Iterations, force evaluations = 3304 3304

variable        AtomMinStep equal 10147
variable        temppe     equal $(pe)
variable        temppe     equal 1621.600571069237958
variable        min_E      equal abs(1690.97904807597-1621.60057106924)
variable        prev_E     equal 1621.60057106924
next            iter
jump            SELF loop_min
min_style       cg
fix             1 all box/relax aniso 0.0 vmax 0.01
minimize        1.0e-15 1.0e-15 10000 100000
Step Temp E_pair E_mol TotEng Press Volume
13451 1.2093776e-10    98.420884    1523.1797    1621.6006   -6451.2414    1616.9016
Loop time of 0.0104088 on 1 procs for 9 steps with 116 atoms

Minimization stats:
  Stopping criterion = linesearch alpha is zero
  Energy initial, next-to-last, final =
  Force two-norm initial, final = 303.242 22.5754
  Force max component initial, final = 274.185 6.87851
  Final line search alpha, max atom move = 1.60722e-11 1.10552e-10
  Iterations, force evaluations = 9 69

unfix           1
min_style       fire
variable        tempstp    equal $(step)
variable        tempstp    equal 13460
variable        CellMinStep equal 13460
minimize        1.0e-15 1.0e-15 10000 100000
  Parameters for fire:
    dmax delaystep dtgrow dtshrink alpha0 alphashrink tmax tmin    integrator halfstepback
     0.1        20    1.1      0.5   0.25        0.99   10 0.02 eulerimplicit          yes
Step Temp E_pair E_mol TotEng Press
13460            0    106.63208    1513.4893    1620.1214   -145.32126
Loop time of 0.257922 on 1 procs for 2272 steps with 116 atoms

Minimization stats:
  Stopping criterion = energy tolerance
  Energy initial, next-to-last, final =
  Force two-norm initial, final = 20.8545 4.38194e-05
  Force max component initial, final = 2.85022 7.80995e-06
  Final line search alpha, max atom move = 0 0
  Iterations, force evaluations = 2272 2272

variable        AtomMinStep equal 13460
variable        temppe     equal $(pe)
variable        temppe     equal 1619.5655440438342794
variable        min_E      equal abs(1621.60057106924-1619.56554404383)
variable        prev_E     equal 1619.56554404383
next            iter
jump            SELF loop_min
min_style       cg
fix             1 all box/relax aniso 0.0 vmax 0.01
minimize        1.0e-15 1.0e-15 10000 100000
Step Temp E_pair E_mol TotEng Press Volume
15732 1.0168526e-10    102.89242    1516.6731    1619.5655   -1043.5799    1602.2324
Loop time of 0.00886249 on 1 procs for 6 steps with 116 atoms

Minimization stats:
  Stopping criterion = linesearch alpha is zero
  Energy initial, next-to-last, final =
  Force two-norm initial, final = 122.252 31.0923
  Force max component initial, final = 111.91 18.6719
  Final line search alpha, max atom move = 1.15003e-11 2.14732e-10
  Iterations, force evaluations = 6 63

unfix           1
min_style       fire
variable        tempstp    equal $(step)
variable        tempstp    equal 15738
variable        CellMinStep equal 15738
minimize        1.0e-15 1.0e-15 10000 100000
  Parameters for fire:
    dmax delaystep dtgrow dtshrink alpha0 alphashrink tmax tmin    integrator halfstepback
     0.1        20    1.1      0.5   0.25        0.99   10 0.02 eulerimplicit          yes
Step Temp E_pair E_mol TotEng Press
15738            0    104.96084    1514.3549    1619.3157    104.12603
Loop time of 0.250918 on 1 procs for 2216 steps with 116 atoms

Minimization stats:
  Stopping criterion = energy tolerance
  Energy initial, next-to-last, final =
  Force two-norm initial, final = 21.2398 4.65459e-05
  Force max component initial, final = 4.53514 7.27548e-06
  Final line search alpha, max atom move = 0 0
  Iterations, force evaluations = 2216 2216

variable        AtomMinStep equal 15738
variable        temppe     equal $(pe)
variable        temppe     equal 1619.1717097265734537
variable        min_E      equal abs(1619.56554404383-1619.17170972657)
variable        prev_E     equal 1619.17170972657
next            iter
jump            SELF loop_min
min_style       cg
fix             1 all box/relax aniso 0.0 vmax 0.01
minimize        1.0e-15 1.0e-15 10000 100000
Step Temp E_pair E_mol TotEng Press Volume
17954 1.2359909e-10    103.97011    1515.2016    1619.1717    214.91338    1598.9149
Loop time of 0.00788199 on 1 procs for 1 steps with 116 atoms

Minimization stats:
  Stopping criterion = linesearch alpha is zero
  Energy initial, next-to-last, final =
  Force two-norm initial, final = 108.029 108.029
  Force max component initial, final = 80.2571 80.2571
  Final line search alpha, max atom move = 9.28339e-13 7.45058e-11
  Iterations, force evaluations = 1 55

unfix           1
min_style       fire
variable        tempstp    equal $(step)
variable        tempstp    equal 17955
variable        CellMinStep equal 17955
minimize        1.0e-15 1.0e-15 10000 100000
  Parameters for fire:
    dmax delaystep dtgrow dtshrink alpha0 alphashrink tmax tmin    integrator halfstepback
     0.1        20    1.1      0.5   0.25        0.99   10 0.02 eulerimplicit          yes
Step Temp E_pair E_mol TotEng Press
17955            0    103.97011    1515.2016    1619.1717    214.91338
Loop time of 0.00686683 on 1 procs for 55 steps with 116 atoms

Minimization stats:
  Stopping criterion = energy tolerance
  Energy initial, next-to-last, final =
  Force two-norm initial, final = 4.65459e-05 4.01698e-05
  Force max component initial, final = 7.27548e-06 6.20725e-06
  Final line search alpha, max atom move = 0 0
  Iterations, force evaluations = 55 55

variable        AtomMinStep equal 17955
variable        temppe     equal $(pe)
variable        temppe     equal 1619.1717097264693166
variable        min_E      equal abs(1619.17170972657-1619.17170972647)
jump SELF break_min
undump          NiPyC2_relax_sc211_ortho_functionalized_SH_xyzmov

# Dump last snapshot for restart
variable curr_lx equal lx
variable curr_ly equal ly
variable curr_lz equal lz
change_box all x final 0 14.514381903286 y final 0 10.5105340149341 z final 0 10.4809833734569
  triclinic box = (0 1.00643 -0.103352) to (14.5144 11.517 10.3776) with tilt (0 -0.232173 0)
  triclinic box = (0 0 -0.103352) to (14.5144 10.5105 10.3776) with tilt (0 -0.232173 0)
  triclinic box = (0 0 0) to (14.5144 10.5105 10.481) with tilt (0 -0.232173 0)

reset_timestep 0
dump            NiPyC2_relax_sc211_ortho_functionalized_SH_restart all atom 1 NiPyC2_relax_sc211_ortho_functionalized_SH_restart.lammpstrj
dump_modify     NiPyC2_relax_sc211_ortho_functionalized_SH_restart scale no sort id
run 0
Step Temp E_pair E_mol TotEng Press
0 7.7139643e-11    103.97011    1515.2016    1619.1717    214.91292
Loop time of 7.88976e-07 on 1 procs for 0 steps with 116 atoms

undump          NiPyC2_relax_sc211_ortho_functionalized_SH_restart
