data_Pn_Ni-PyC-NH2_with_Xe_PM
_symmetry_space_group_name_H-M    'P1'
_cell_length_a    10.618000
_cell_length_b    11.878600
_cell_length_c    7.091800
_cell_angle_alpha    90.000000
_cell_angle_beta    89.972000
_cell_angle_gamma    90.000000
_symmetry_Int_Tables_number 1

loop_
_symmetry_equiv_pos_as_xyz
'x,y,z'

loop_
_atom_site_label
_atom_site_type_symbol
_atom_site_fract_x
_atom_site_fract_y
_atom_site_fract_z
Ni1    Ni    0.498700    0.248500    0.045900
O1    O    0.030000    0.870000    0.769000
O2    O    0.130000    0.860000    0.504400
C1    C    0.209000    0.020000    0.935800
C2    C    0.303000    0.038000    0.627700
C3    C    0.380000    0.120000    0.704600
H1    H    0.450000    0.170000    0.613900
H2    H    0.398000    0.040000    0.377200
N1    N    0.380000    0.150000    0.887600
N2    N    0.321000    0.007000    0.449100
C4    C    0.210000    0.988000    0.746800
H3    H    0.270000    0.942000    0.399700
C5    C    0.120000    0.900000    0.672400
C6    C    0.297000    0.099000    0.003200
H4    H    0.300000    0.122000    0.151100
H5    H    0.140000    0.980000    0.036100
O3    O    0.556000    0.341900    0.841900
O4    O    0.656400    0.373900    0.104100
C7    C    0.688800    0.521900    0.651100
C8    C    0.821600    0.536100    0.925600
C9    C    0.895500    0.615400    0.823900
H6    H    0.980800    0.649800    0.886400
H7    H    0.920600    0.563600    0.168100
N3    N    0.862600    0.652700    0.653700
N4    N    0.851400    0.515400    0.104900
C10    C    0.717000    0.484800    0.832800
H8    H    0.792900    0.461400    0.177600
C11    C    0.641200    0.399200    0.928500
C12    C    0.761200    0.606500    0.566100
H9    H    0.738600    0.640000    0.427600
H10    H    0.607300    0.490100    0.575300
Ni2    Ni    0.998700    0.751500    0.545900
O5    O    0.530000    0.130000    0.269000
O6    O    0.630000    0.140000    0.004400
C13    C    0.709000    0.980000    0.435800
C14    C    0.803000    0.962000    0.127700
C15    C    0.880000    0.880000    0.204600
H11    H    0.950000    0.830000    0.113900
H12    H    0.898000    0.960000    0.877200
N5    N    0.880000    0.850000    0.387600
N6    N    0.821000    0.993000    0.949100
C16    C    0.710000    0.012000    0.246800
H13    H    0.770000    0.058000    0.899700
C17    C    0.620000    0.100000    0.172400
C18    C    0.797000    0.901000    0.503200
H14    H    0.800000    0.878000    0.651100
H15    H    0.640000    0.020000    0.536100
O7    O    0.056000    0.658100    0.341900
O8    O    0.156400    0.626100    0.604100
C19    C    0.188800    0.478100    0.151100
C20    C    0.321600    0.463900    0.425600
C21    C    0.395500    0.384600    0.323900
H16    H    0.480800    0.350200    0.386400
H17    H    0.420600    0.436400    0.668100
N7    N    0.362600    0.347300    0.153700
N8    N    0.351400    0.484600    0.604900
C22    C    0.217000    0.515200    0.332800
H18    H    0.292900    0.538600    0.677600
C23    C    0.141200    0.600800    0.428500
C24    C    0.261200    0.393500    0.066100
H19    H    0.238600    0.360000    0.927600
H20    H    0.107300    0.509900    0.075300
Xe1    Xe    0.063704    0.205208    0.503651
