
data_
_chemical_name_mineral ?hkl_Phase?
_cell_length_a 11.9019(7)
_cell_length_b 7.1072(4)
_cell_length_c 10.6429(7)
_cell_angle_alpha 90
_cell_angle_beta 90
_cell_angle_gamma 90
_cell_volume 900.27(9)
_symmetry_space_group_name_H-M Pnn2
loop_
	_symmetry_equiv_pos_as_xyz
	 'x, y, z '
	 '-x+1/2, y+1/2, z+1/2 '
	 '-x, -y, z '
	 'x+1/2, -y+1/2, z+1/2 '
loop_
_atom_site_label
_atom_site_type_symbol
_atom_site_symmetry_multiplicity
_atom_site_fract_x
_atom_site_fract_y
_atom_site_fract_z
_atom_site_occupancy
_atom_site_B_iso_or_equiv
Ni1 Ni   2 0 0.5 0.4574(4) 1 1.65(12)
O012 O   4 -0.3833(9) -0.7936(16) -0.0000(7) 1 1.20(17)
O022 O   4 -0.3829(9) -1.0442(15) 0.1178(8) 1 1.20(17)
C032 C   4 -0.2244(7) -0.6052(12) 0.1634(5) 1 1.20(17)
C042 C   4 -0.2027(7) -0.8997(12) 0.2730(5) 1 1.20(17)
C052 C   4 -0.1155(7) -0.8131(13) 0.3439(5) 1 1.20(17)
H062 H   4 -0.0680(9) -0.8950(14) 0.4121(6) 1 1.20(17)
H072 H   4 -0.1976(10) -1.1369(12) 0.3812(7) 1 1.20(17)
N082 N   4 -0.0908(7) -0.6310(13) 0.3330(5) 1 1.20(17)
N092 N   4 -0.2324(9) -1.0751(12) 0.3023(6) 1 1.20(17)
C102 C   4 -0.2561(7) -0.7931(12) 0.1763(5) 1 1.20(17)
H112 H   4 -0.2991(10) -1.1313(13) 0.2532(7) 1 1.20(17)
C122 C   4 -0.3429(8) -0.8782(14) 0.0971(7) 1 1.20(17)
C132 C   4 -0.1435(8) -0.5270(12) 0.2434(5) 1 1.20(17)
H142 H   4 -0.1201(9) -0.3793(12) 0.2386(7) 1 1.20(17)
H152 H   4 -0.2651(8) -0.5136(13) 0.0954(6) 1 1.20(17)
