
data_
_chemical_name_mineral ?hkl_Phase?
_cell_length_a 11.8992(9)
_cell_length_b 7.1159(6)
_cell_length_c 10.6372(10)
_cell_angle_alpha 90
_cell_angle_beta 90
_cell_angle_gamma 90
_cell_volume 900.68(14)
_symmetry_space_group_name_H-M Pnn2
loop_
	_symmetry_equiv_pos_as_xyz
	 'x, y, z '
	 '-x+1/2, y+1/2, z+1/2 '
	 '-x, -y, z '
	 'x+1/2, -y+1/2, z+1/2 '
loop_
_atom_site_label
_atom_site_type_symbol
_atom_site_symmetry_multiplicity
_atom_site_fract_x
_atom_site_fract_y
_atom_site_fract_z
_atom_site_occupancy
_atom_site_B_iso_or_equiv
Ni1 Ni   2 0 0.5 0.4448(8) 1 1.82(17)
O012 O   4 -0.3800(12) -0.793(2) -0.0119(11) 1 1.3(2)
O022 O   4 -0.3791(13) -1.043(2) 0.1063(12) 1 1.3(2)
C032 C   4 -0.2213(10) -0.6033(17) 0.1514(8) 1 1.3(2)
C042 C   4 -0.1990(10) -0.8971(17) 0.2615(8) 1 1.3(2)
C052 C   4 -0.1121(10) -0.8100(18) 0.3323(8) 1 1.3(2)
H062 H   4 -0.0643(11) -0.891(2) 0.4005(10) 1 1.3(2)
H072 H   4 -0.1935(14) -1.1337(18) 0.3699(11) 1 1.3(2)
N082 N   4 -0.0877(10) -0.6280(19) 0.3212(9) 1 1.3(2)
N092 N   4 -0.2285(13) -1.0724(17) 0.2910(10) 1 1.3(2)
C102 C   4 -0.2527(9) -0.7911(17) 0.1645(8) 1 1.3(2)
H112 H   4 -0.2950(14) -1.1290(18) 0.2418(11) 1 1.3(2)
C122 C   4 -0.3394(11) -0.877(2) 0.0855(10) 1 1.3(2)
C132 C   4 -0.1405(11) -0.5246(17) 0.2314(9) 1 1.3(2)
H142 H   4 -0.1175(13) -0.3770(17) 0.2264(10) 1 1.3(2)
H152 H   4 -0.2622(11) -0.5123(18) 0.0833(9) 1 1.3(2)
