
data_
_chemical_name_mineral ?hkl_Phase?
_cell_length_a 11.8929(12)
_cell_length_b 7.1131(6)
_cell_length_c 10.6434(12)
_cell_angle_alpha 90
_cell_angle_beta 90
_cell_angle_gamma 90
_cell_volume 900.38(15)
_symmetry_space_group_name_H-M Pnn2
loop_
	_symmetry_equiv_pos_as_xyz
	 'x, y, z '
	 '-x+1/2, y+1/2, z+1/2 '
	 '-x, -y, z '
	 'x+1/2, -y+1/2, z+1/2 '
loop_
_atom_site_label
_atom_site_type_symbol
_atom_site_symmetry_multiplicity
_atom_site_fract_x
_atom_site_fract_y
_atom_site_fract_z
_atom_site_occupancy
_atom_site_B_iso_or_equiv
Ni1 Ni   2 0 0.5 0.4646(7) 1 1.62(16)
O012 O   4 -0.3862(14) -0.793(2) 0.0070(12) 1 1.7(2)
O022 O   4 -0.3836(14) -1.044(2) 0.1238(14) 1 1.7(2)
C032 C   4 -0.2286(10) -0.6023(17) 0.1712(7) 1 1.7(2)
C042 C   4 -0.2044(10) -0.8970(16) 0.2796(7) 1 1.7(2)
C052 C   4 -0.1179(11) -0.8091(18) 0.3508(8) 1 1.7(2)
H062 H   4 -0.0696(13) -0.890(2) 0.4185(10) 1 1.7(2)
H072 H   4 -0.1973(16) -1.1349(18) 0.3867(11) 1 1.7(2)
N082 N   4 -0.0947(11) -0.6265(19) 0.3406(9) 1 1.7(2)
N092 N   4 -0.2326(13) -1.0733(17) 0.3081(10) 1 1.7(2)
C102 C   4 -0.2588(10) -0.7909(17) 0.1833(7) 1 1.7(2)
H112 H   4 -0.2989(14) -1.1305(18) 0.2587(12) 1 1.7(2)
C122 C   4 -0.3450(12) -0.877(2) 0.1038(11) 1 1.7(2)
C132 C   4 -0.1483(11) -0.5230(17) 0.2515(8) 1 1.7(2)
H142 H   4 -0.1262(14) -0.3749(17) 0.2473(11) 1 1.7(2)
H152 H   4 -0.2701(12) -0.5111(19) 0.1036(9) 1 1.7(2)
