
data_
_chemical_name_mineral ?hkl_Phase?
_cell_length_a 11.8622(7)
_cell_length_b 7.0508(4)
_cell_length_c 10.6097(7)
_cell_angle_alpha 90
_cell_angle_beta 90
_cell_angle_gamma 90
_cell_volume 887.37(9)
_symmetry_space_group_name_H-M Pnn2
loop_
	_symmetry_equiv_pos_as_xyz
	 'x, y, z '
	 '-x+1/2, y+1/2, z+1/2 '
	 '-x, -y, z '
	 'x+1/2, -y+1/2, z+1/2 '
loop_
_atom_site_label
_atom_site_type_symbol
_atom_site_symmetry_multiplicity
_atom_site_fract_x
_atom_site_fract_y
_atom_site_fract_z
_atom_site_occupancy
_atom_site_B_iso_or_equiv
Ni1 Ni   2 0 0.5 0.5147(8) 1 4.17(18)
O012 O   4 -0.3760(8) -0.771(2) 0.0656(8) 1 2.7(2)
O022 O   4 -0.3797(9) -1.031(2) 0.1766(10) 1 2.7(2)
C032 C   4 -0.2091(7) -0.6032(17) 0.2309(7) 1 2.7(2)
C042 C   4 -0.1927(7) -0.9082(17) 0.3319(7) 1 2.7(2)
C052 C   4 -0.1019(6) -0.8316(18) 0.4032(7) 1 2.7(2)
H062 H   4 -0.0551(8) -0.922(2) 0.4681(8) 1 2.7(2)
H072 H   4 -0.1916(12) -1.1542(18) 0.4334(10) 1 2.7(2)
N082 N   4 -0.0728(6) -0.6494(19) 0.3969(7) 1 2.7(2)
N092 N   4 -0.2263(10) -1.0845(17) 0.3570(9) 1 2.7(2)
C102 C   4 -0.2453(6) -0.7909(17) 0.2392(7) 1 2.7(2)
H112 H   4 -0.2954(11) -1.1333(18) 0.3078(10) 1 2.7(2)
C122 C   4 -0.3359(7) -0.865(2) 0.1596(8) 1 2.7(2)
C132 C   4 -0.1246(7) -0.5353(17) 0.3113(7) 1 2.7(2)
H142 H   4 -0.0976(10) -0.3880(18) 0.3100(9) 1 2.7(2)
H152 H   4 -0.2487(8) -0.5039(18) 0.1663(8) 1 2.7(2)
