data_NiPyC2_relax_sc211_meta_functionalized_N-NH_pbesol_relax_PM
_symmetry_space_group_name_H-M	'P1'
_cell_length_a	12.505617
_cell_length_b	12.523412
_cell_length_c	10.276810
_cell_angle_alpha	90.000000
_cell_angle_beta	91.268973
_cell_angle_gamma	90.000000
_symmetry_Int_Tables_number 1

loop_
_symmetry_equiv_pos_as_xyz
'x,y,z'

loop_
_atom_site_label
_atom_site_type_symbol
_atom_site_fract_x
_atom_site_fract_y
_atom_site_fract_z
C1	C	0.295073	0.961897	0.524775
C2	C	0.037307	0.041336	0.035647
C3	C	0.390513	0.015007	0.554422
C4	C	0.134833	0.986860	0.058052
C5	C	0.446974	0.983116	0.668560
C6	C	0.195059	0.024876	0.165061
C7	C	0.207328	0.544766	0.533751
C8	C	0.456940	0.446510	0.011220
C9	C	0.245153	0.625739	0.617750
C10	C	0.491843	0.361189	0.093061
C11	C	0.259877	0.880261	0.606268
C12	C	0.004967	0.127152	0.115049
C13	C	0.407767	0.898974	0.746608
C14	C	0.157973	0.108466	0.243213
C15	C	0.088089	0.614869	0.735070
C16	C	0.333188	0.366607	0.204945
C17	C	0.047853	0.533110	0.655307
C18	C	0.295035	0.452038	0.128588
C19	C	0.108357	0.494471	0.552932
C20	C	0.357871	0.497301	0.032508
C21	C	0.431854	0.101232	0.473081
C22	C	0.174835	0.897205	0.978084
C23	C	0.071035	0.405299	0.472062
C24	C	0.321141	0.594462	0.962787
C25	C	0.771272	0.999185	0.541455
C26	C	0.526189	-0.008489	0.058000
C27	C	0.877406	0.033496	0.547548
C28	C	0.632061	0.956596	0.066935
C29	C	0.947163	0.976678	0.632204
C30	C	0.700163	0.006108	0.161001
C31	C	0.722334	0.538899	0.508612
C32	C	0.974837	0.484663	0.031467
C33	C	0.752656	0.623575	0.592516
C34	C	1.007987	0.404099	0.117544
C35	C	0.740028	0.910818	0.615031
C36	C	0.493656	0.077143	0.134479
C37	C	0.911191	0.886911	0.703465
C38	C	0.663135	0.093621	0.234384
C39	C	0.586522	0.621648	0.690239
C40	C	0.836367	0.384052	0.200639
C41	C	0.553170	0.536018	0.612168
C42	C	0.799886	0.468883	0.119878
C43	C	0.621275	0.489305	0.521579
C44	C	0.868509	0.518243	0.030380
C45	C	0.920315	0.123755	0.473295
C46	C	0.673758	0.876312	0.978579
C47	C	0.585114	0.394315	0.451299
C48	C	0.825761	0.603876	0.946711
H1	H	0.246815	0.983742	0.439632
H2	H	0.467755	-0.046885	0.994270
H3	H	0.271572	0.988304	0.190055
H4	H	0.033457	0.521469	0.969177
H5	H	0.323320	0.662230	0.604519
H6	H	0.090003	0.375829	0.122314
H7	H	0.185125	0.838543	0.586635
H8	H	0.412312	0.107349	0.130612
H9	H	0.454230	0.870318	0.830191
H10	H	0.204206	0.136161	0.327178
H11	H	0.042973	0.645943	0.815673
H12	H	0.285836	0.333459	0.282476
H13	H	0.474664	0.502702	0.629886
H14	H	0.217718	0.486320	0.150084
H15	H	0.711035	1.040489	0.482828
H16	H	0.832515	0.657562	0.586010
H17	H	0.570495	0.326193	0.078529
H18	H	0.658305	0.881557	0.611331
H19	H	0.929817	0.168217	0.093421
H20	H	0.965719	0.845197	0.770150
H21	H	0.716340	0.134853	0.303451
H22	H	0.536216	0.654058	0.765539
H23	H	0.783196	0.345745	0.268954
H24	H	0.970240	0.498681	0.675314
H25	H	0.667694	0.072884	0.792040
H26	H	0.810509	-0.111030	1.069733
H27	H	0.433598	0.426895	0.442189
H28	H	0.654518	0.483234	0.825839
H29	H	0.190355	0.035038	0.709888
H30	H	0.941790	0.951435	0.250579
H31	H	0.927558	0.520269	0.331801
H32	H	0.559373	0.538636	0.186904
N1	N	0.314662	0.850719	0.716223
N2	N	0.063572	0.158767	0.218007
N3	N	0.185694	0.658475	0.716226
N4	N	0.432791	0.325517	0.190634
N5	N	0.808300	0.857204	0.696304
N6	N	0.561906	0.127773	0.218258
N7	N	0.687031	0.661460	0.682003
N8	N	0.940117	0.356308	0.201352
N9	N	0.542265	0.030880	0.698997
N10	N	0.586382	1.057055	0.801493
N11	N	0.963781	1.018996	0.937678
N12	N	0.882655	0.040482	0.887810
N13	N	0.273560	0.518718	0.434958
N14	N	0.357193	0.529607	0.388110
N15	N	0.524603	0.480793	0.916409
N16	N	0.608155	0.436182	0.886053
N17	N	0.050899	0.008511	0.645082
N18	N	0.110672	1.028990	0.737402
N19	N	0.803090	0.965778	0.175068
N20	N	0.869012	-0.010896	0.264290
N21	N	0.795971	0.508774	0.418376
N22	N	0.875817	0.561373	0.391565
N23	N	0.697320	0.504731	0.127376
N24	N	0.638454	0.525384	0.217473
Ni1	Ni	0.251022	0.751899	0.845864
Ni2	Ni	0.500896	0.236784	0.332028
Ni3	Ni	0.750332	0.749763	0.819458
Ni4	Ni	0.999445	0.262113	0.340782
O1	O	0.128118	0.359882	0.385523
O2	O	0.377655	0.646515	0.881424
O3	O	0.376020	0.144007	0.380027
O4	O	0.117594	0.846342	0.893422
O5	O	0.480025	0.364242	0.465333
O6	O	0.227716	0.634051	0.981029
O7	O	0.019921	0.148332	0.482020
O8	O	0.272320	0.865010	0.988850
O9	O	0.635835	0.332011	0.381509
O10	O	0.881526	0.658667	0.867250
O11	O	0.865100	0.181135	0.392813
O12	O	0.623326	0.834220	0.884438
O13	O	0.975839	0.368145	0.482702
O14	O	0.726121	0.629480	0.948885
O15	O	0.526754	0.138777	0.488493
O16	O	0.775528	0.846084	0.990270
