data_NiPyC2_vdw-df2_vc-relax_PM
_symmetry_space_group_name_H-M	'P1'
_cell_length_a	6.844737
_cell_length_b	12.878553
_cell_length_c	10.905116
_cell_angle_alpha	90.000000
_cell_angle_beta	91.195882
_cell_angle_gamma	90.000000
_symmetry_Int_Tables_number 1

loop_
_symmetry_equiv_pos_as_xyz
'x,y,z'

loop_
_atom_site_label
_atom_site_type_symbol
_atom_site_fract_x
_atom_site_fract_y
_atom_site_fract_z
C1	C	0.586057	0.969465	0.528672
C2	C	0.777881	1.006023	0.546545
C3	C	0.889886	0.963267	0.643645
C4	C	0.410074	0.524602	0.536636
C5	C	0.479928	0.604834	0.614590
C6	C	0.512222	0.892716	0.608160
C7	C	0.806163	0.886874	0.719930
C8	C	0.187514	0.607495	0.720684
C9	C	0.108453	0.527086	0.646136
C10	C	0.220986	0.484623	0.552098
C11	C	0.858565	0.090062	0.466430
C12	C	0.143988	0.398948	0.470477
C13	C	0.086057	0.030535	0.028672
C14	C	0.277881	-0.006023	0.046545
C15	C	0.389886	0.036733	0.143645
C16	C	0.910074	0.475398	0.036636
C17	C	0.979928	0.395166	0.114590
C18	C	0.012222	0.107284	0.108160
C19	C	0.306163	0.113126	0.219930
C20	C	0.687514	0.392505	0.220684
C21	C	0.608453	0.472914	0.146136
C22	C	0.720986	0.515377	0.052098
C23	C	0.358565	0.909938	0.966430
C24	C	0.643988	0.601052	0.970477
H1	H	0.492281	0.999427	0.456700
H2	H	0.037906	0.987244	0.662695
H3	H	0.504722	0.494882	0.467395
H4	H	0.624578	0.636327	0.604268
H5	H	0.365422	0.863695	0.596061
H6	H	0.889681	0.853058	0.794599
H7	H	0.102965	0.641582	0.792588
H8	H	0.963084	0.500299	0.663979
H9	H	-0.007719	0.000573	0.956700
H10	H	0.537906	0.012756	0.162695
H11	H	1.004722	0.505118	0.967395
H12	H	0.124578	0.363673	0.104268
H13	H	0.865422	0.136305	0.096061
H14	H	0.389681	0.146942	0.294599
H15	H	0.602965	0.358418	0.292588
H16	H	0.463084	0.499701	0.163979
N1	N	0.619312	0.853238	0.703285
N2	N	0.370815	0.645102	0.705730
N3	N	0.119312	0.146762	0.203285
N4	N	0.870815	0.354898	0.205730
Ni1	Ni	0.489388	0.752737	0.834682
Ni2	Ni	0.989388	0.247263	0.334682
O1	O	0.245882	0.358856	0.385078
O2	O	0.755949	0.134836	0.380540
O3	O	0.970681	0.360469	0.481000
O4	O	0.034016	0.123681	0.479826
O5	O	0.745882	0.641144	0.885078
O6	O	0.255949	0.865164	0.880540
O7	O	0.470681	0.639531	0.981000
O8	O	0.534016	0.876319	0.979826
