
data_
_chemical_name_mineral ?hkl_Phase?
_cell_length_a 11.8937(14)
_cell_length_b 7.1110(6)
_cell_length_c 10.6392(13)
_cell_angle_alpha 90
_cell_angle_beta 90
_cell_angle_gamma 90
_cell_volume 899.83(17)
_symmetry_space_group_name_H-M Pnn2
loop_
	_symmetry_equiv_pos_as_xyz
	 'x, y, z '
	 '-x+1/2, y+1/2, z+1/2 '
	 '-x, -y, z '
	 'x+1/2, -y+1/2, z+1/2 '
loop_
_atom_site_label
_atom_site_type_symbol
_atom_site_symmetry_multiplicity
_atom_site_fract_x
_atom_site_fract_y
_atom_site_fract_z
_atom_site_occupancy
_atom_site_B_iso_or_equiv
Ni1 Ni   2 0 0.5 0.4577(8) 1 1.60(19)
O012 O   4 -0.3866(15) -0.794(3) 0.0006(13) 1 1.3(3)
O022 O   4 -0.3851(15) -1.044(2) 0.1186(15) 1 1.3(3)
C032 C   4 -0.2294(11) -0.6029(18) 0.1648(8) 1 1.3(3)
C042 C   4 -0.2062(11) -0.8967(18) 0.2747(8) 1 1.3(3)
C052 C   4 -0.1198(11) -0.809(2) 0.3460(9) 1 1.3(3)
H062 H   4 -0.0720(13) -0.890(2) 0.4144(11) 1 1.3(3)
H072 H   4 -0.2001(17) -1.1336(19) 0.3830(12) 1 1.3(3)
N082 N   4 -0.0962(11) -0.626(2) 0.3351(10) 1 1.3(3)
N092 N   4 -0.2350(14) -1.0725(18) 0.3039(11) 1 1.3(3)
C102 C   4 -0.2600(10) -0.7912(19) 0.1776(9) 1 1.3(3)
H112 H   4 -0.3011(15) -1.130(2) 0.2544(13) 1 1.3(3)
C122 C   4 -0.3460(12) -0.878(2) 0.0980(12) 1 1.3(3)
C132 C   4 -0.1492(11) -0.5232(18) 0.2452(10) 1 1.3(3)
H142 H   4 -0.1267(15) -0.3752(19) 0.2404(12) 1 1.3(3)
H152 H   4 -0.2704(13) -0.512(2) 0.0965(10) 1 1.3(3)