
data_
_chemical_name_mineral ?hkl_Phase?
_cell_length_a 10.6180(3)
_cell_length_b 11.8786(4)
_cell_length_c 7.09180(18)
_cell_angle_alpha 90
_cell_angle_beta 89.972(9)
_cell_angle_gamma 90
_cell_volume 894.47(4)
_symmetry_space_group_name_H-M Pn
loop_
	_symmetry_equiv_pos_as_xyz
	 'x, y, z '
	 'x+1/2, -y, z+1/2 '
loop_
_atom_site_label
_atom_site_type_symbol
_atom_site_symmetry_multiplicity
_atom_site_fract_x
_atom_site_fract_y
_atom_site_fract_z
_atom_site_occupancy
_atom_site_B_iso_or_equiv
Ni1 Ni   2 0.4987(2) 0.2485(9) 0.0459(18) 1 2.14(8)
O011 O   2 0.03(5) -0.13(6) 0.769(2) 1 0.54(8)
O021 O   2 0.13(5) -0.14(3) 0.5044(17) 1 0.54(8)
C031 C   2 0.209(9) 0.020(15) 0.9358(7) 1 0.54(8)
C041 C   2 0.303(3) 0.038(8) 0.6277(6) 1 0.54(8)
C051 C   2 0.38(2) 0.12(3) 0.7046(10) 1 0.54(8)
H061 H   2 0.45(4) 0.17(4) 0.6139(15) 1 0.54(8)
H071 H   2 0.398(2) 0.04(3) 0.3772(10) 1 0.54(8)
N081 N   2 0.38(3) 0.15(3) 0.8876(11) 1 0.54(8)
N091 N   2 0.321(12) 0.007(12) 0.4491(7) 1 0.54(8)
C101 C   2 0.210(18) -0.012(14) 0.7468(8) 1 0.54(8)
H111 H   2 0.27(3) -0.0580(16) 0.3997(9) 1 0.54(8)
C121 C   2 0.12(4) -0.10(4) 0.6724(15) 1 0.54(8)
C131 C   2 0.297(15) 0.099(6) 1.0032(7) 1 0.54(8)
H141 H   2 0.30(2) 0.122(7) 1.1511(8) 1 0.54(8)
H151 H   2 0.14(2) -0.02(3) 1.0361(11) 1 0.54(8)
O012 O   2 0.556(2) 0.3419(18) 0.8419(17) 1 0.54(8)
O022 O   2 0.6564(17) 0.3739(15) 1.1041(13) 1 0.54(8)
C032 C   2 0.6888(9) 0.5219(9) 0.6511(8) 1 0.54(8)
C042 C   2 0.8216(9) 0.5361(8) 0.9256(7) 1 0.54(8)
C052 C   2 0.8955(11) 0.6154(11) 0.8239(10) 1 0.54(8)
H062 H   2 0.9808(14) 0.6498(16) 0.8864(14) 1 0.54(8)
H072 H   2 0.9206(14) 0.5636(13) 1.1681(10) 1 0.54(8)
N082 N   2 0.8626(13) 0.6527(11) 0.6537(10) 1 0.54(8)
N092 N   2 0.8514(12) 0.5154(10) 1.1049(8) 1 0.54(8)
C102 C   2 0.7170(10) 0.4848(9) 0.8328(8) 1 0.54(8)
H112 H   2 0.7929(14) 0.4614(11) 1.1776(8) 1 0.54(8)
C122 C   2 0.6412(15) 0.3992(14) 0.9285(12) 1 0.54(8)
C132 C   2 0.7612(10) 0.6065(8) 0.5661(7) 1 0.54(8)
H142 H   2 0.7386(13) 0.6400(10) 0.4276(9) 1 0.54(8)
H152 H   2 0.6073(12) 0.4901(13) 0.5753(11) 1 0.54(8)