units           real
atom_style      full
boundary        p p p

pair_style      lj/cut 5.000
bond_style      harmonic
angle_style     hybrid fourier cosine/periodic
dihedral_style  harmonic
improper_style  fourier

pair_modify     tail yes mix arithmetic
dielectric      1.0
special_bonds   lj/coul 0.0 0.0 1.0
box tilt        large
read_data       data.NiPyC2_relax_sc211_ortho_functionalized_O-CH2-CH3
  triclinic box = (0 0 0) to (12.5056 12.5234 10.2743) with tilt (0 -0.227594 0)
  reading atoms ...
  164 atoms
  scanning bonds ...
  scanning angles ...
  scanning dihedrals ...
  scanning impropers ...
  reading bonds ...
  184 bonds
  reading angles ...
  348 angles
  reading dihedrals ...
  368 dihedrals
  reading impropers ...
  168 impropers

#### Atom Groupings ####
group           fram     id   1:164
164 atoms in group fram
#### END Atom Groupings ####

dump            NiPyC2_relax_sc211_ortho_functionalized_O-CH2-CH3_xyzmov all xyz 20000 NiPyC2_relax_sc211_ortho_functionalized_O-CH2-CH3_mov.xyz
dump_modify     NiPyC2_relax_sc211_ortho_functionalized_O-CH2-CH3_xyzmov element Ni O N C H O C
min_style       cg
print           "MinStep,CellMinStep,AtomMinStep,FinalStep,Energy,EDiff" file NiPyC2_relax_sc211_ortho_functionalized_O-CH2-CH3.min.csv screen no
variable        min_eval   equal 1.00e-06
variable        prev_E     equal 50000.00
variable        iter       loop 100000
label           loop_min
min_style       cg
fix             1 all box/relax aniso 0.0 vmax 0.01
minimize        1.0e-15 1.0e-15 10000 100000
  update every 1 steps, delay 0 steps, check yes
Step Temp E_pair E_mol TotEng Press Volume
0            0 1.7153036e+09    2375.8801 1.715306e+09 2.9238203e+11    1609.0819
Loop time of 0.189227 on 1 procs for 459 steps with 164 atoms

Minimization stats:
  Stopping criterion = linesearch alpha is zero
  Energy initial, next-to-last, final =
  Force two-norm initial, final = 6.24034e+10 72.4478
  Force max component initial, final = 2.90446e+10 41.9897
  Final line search alpha, max atom move = 1.83604e-12 7.70949e-11
  Iterations, force evaluations = 459 774

unfix           1
min_style       fire
variable        tempstp    equal $(step)
variable        tempstp    equal 459
variable        CellMinStep equal 459
minimize        1.0e-15 1.0e-15 10000 100000
  Parameters for fire:
    dmax delaystep dtgrow dtshrink alpha0 alphashrink tmax tmin    integrator halfstepback
     0.1        20    1.1      0.5   0.25        0.99   10 0.02 eulerimplicit          yes
Step Temp E_pair E_mol TotEng Press
459            0    174.79668    1801.4706    1976.2673    603.97533
Loop time of 1.09142 on 1 procs for 5861 steps with 164 atoms

Minimization stats:
  Stopping criterion = energy tolerance
  Energy initial, next-to-last, final =
  Force two-norm initial, final = 53.5488 4.70638e-05
  Force max component initial, final = 16.6722 7.80685e-06
  Final line search alpha, max atom move = 0 0
  Iterations, force evaluations = 5861 5861

variable        AtomMinStep equal 459
variable        temppe     equal $(pe)
variable        temppe     equal 1830.3807790751836819
variable        min_E      equal abs(50000-1830.38077907518)
variable        prev_E     equal 1830.38077907518
next            iter
jump            SELF loop_min
min_style       cg
fix             1 all box/relax aniso 0.0 vmax 0.01
minimize        1.0e-15 1.0e-15 10000 100000
Step Temp E_pair E_mol TotEng Press Volume
6320 1.3466802e-10    108.67527    1721.7055    1830.3808   -15888.628    1714.1747
Loop time of 0.0239695 on 1 procs for 27 steps with 164 atoms

Minimization stats:
  Stopping criterion = linesearch alpha is zero
  Energy initial, next-to-last, final =
  Force two-norm initial, final = 802.725 51.8685
  Force max component initial, final = 600.484 30.3872
  Final line search alpha, max atom move = 2.41276e-12 7.33168e-11
  Iterations, force evaluations = 27 107

unfix           1
min_style       fire
variable        tempstp    equal $(step)
variable        tempstp    equal 6347
variable        CellMinStep equal 6347
minimize        1.0e-15 1.0e-15 10000 100000
  Parameters for fire:
    dmax delaystep dtgrow dtshrink alpha0 alphashrink tmax tmin    integrator halfstepback
     0.1        20    1.1      0.5   0.25        0.99   10 0.02 eulerimplicit          yes
Step Temp E_pair E_mol TotEng Press
6347            0    133.71605    1687.3687    1821.0847   -487.08024
Loop time of 0.546311 on 1 procs for 2902 steps with 164 atoms

Minimization stats:
  Stopping criterion = energy tolerance
  Energy initial, next-to-last, final =
  Force two-norm initial, final = 37.7693 3.6953e-05
  Force max component initial, final = 10.7997 5.59995e-06
  Final line search alpha, max atom move = 0 0
  Iterations, force evaluations = 2902 2902

variable        AtomMinStep equal 6347
variable        temppe     equal $(pe)
variable        temppe     equal 1818.244314000592567
variable        min_E      equal abs(1830.38077907518-1818.24431400059)
variable        prev_E     equal 1818.24431400059
next            iter
jump            SELF loop_min
min_style       cg
fix             1 all box/relax aniso 0.0 vmax 0.01
minimize        1.0e-15 1.0e-15 10000 100000
Step Temp E_pair E_mol TotEng Press Volume
9249 1.0517134e-10    122.64087    1695.6034    1818.2443   -5015.1114    1679.5006
Loop time of 0.0151923 on 1 procs for 8 steps with 164 atoms

Minimization stats:
  Stopping criterion = linesearch alpha is zero
  Energy initial, next-to-last, final =
  Force two-norm initial, final = 303.2 32.6638
  Force max component initial, final = 215.747 15.8423
  Final line search alpha, max atom move = 8.5826e-12 1.35968e-10
  Iterations, force evaluations = 8 67

unfix           1
min_style       fire
variable        tempstp    equal $(step)
variable        tempstp    equal 9257
variable        CellMinStep equal 9257
minimize        1.0e-15 1.0e-15 10000 100000
  Parameters for fire:
    dmax delaystep dtgrow dtshrink alpha0 alphashrink tmax tmin    integrator halfstepback
     0.1        20    1.1      0.5   0.25        0.99   10 0.02 eulerimplicit          yes
Step Temp E_pair E_mol TotEng Press
9257            0    131.29674    1686.1862    1817.4829   -59.655115
Loop time of 0.404431 on 1 procs for 2132 steps with 164 atoms

Minimization stats:
  Stopping criterion = energy tolerance
  Energy initial, next-to-last, final =
  Force two-norm initial, final = 24.5977 3.38999e-05
  Force max component initial, final = 3.85657 9.86577e-06
  Final line search alpha, max atom move = 0 0
  Iterations, force evaluations = 2132 2132

variable        AtomMinStep equal 9257
variable        temppe     equal $(pe)
variable        temppe     equal 1816.9984666933598874
variable        min_E      equal abs(1818.24431400059-1816.99846669336)
variable        prev_E     equal 1816.99846669336
next            iter
jump            SELF loop_min
min_style       cg
fix             1 all box/relax aniso 0.0 vmax 0.01
minimize        1.0e-15 1.0e-15 10000 100000
Step Temp E_pair E_mol TotEng Press Volume
11389 1.1880634e-10    126.77958    1690.2189    1816.9985    -2226.226    1671.3737
Loop time of 0.0124818 on 1 procs for 2 steps with 164 atoms

Minimization stats:
  Stopping criterion = linesearch alpha is zero
  Energy initial, next-to-last, final =
  Force two-norm initial, final = 192.523 47.5904
  Force max component initial, final = 134.298 31.1792
  Final line search alpha, max atom move = 5.10133e-12 1.59055e-10
  Iterations, force evaluations = 2 55

unfix           1
min_style       fire
variable        tempstp    equal $(step)
variable        tempstp    equal 11391
variable        CellMinStep equal 11391
minimize        1.0e-15 1.0e-15 10000 100000
  Parameters for fire:
    dmax delaystep dtgrow dtshrink alpha0 alphashrink tmax tmin    integrator halfstepback
     0.1        20    1.1      0.5   0.25        0.99   10 0.02 eulerimplicit          yes
Step Temp E_pair E_mol TotEng Press
11391            0    129.62098     1687.234     1816.855    466.22227
Loop time of 0.398398 on 1 procs for 2115 steps with 164 atoms

Minimization stats:
  Stopping criterion = energy tolerance
  Energy initial, next-to-last, final =
  Force two-norm initial, final = 13.9439 3.99387e-05
  Force max component initial, final = 2.36267 9.20437e-06
  Final line search alpha, max atom move = 0 0
  Iterations, force evaluations = 2115 2115

variable        AtomMinStep equal 11391
variable        temppe     equal $(pe)
variable        temppe     equal 1816.7249004293951202
variable        min_E      equal abs(1816.99846669336-1816.7249004294)
variable        prev_E     equal 1816.7249004294
next            iter
jump            SELF loop_min
min_style       cg
fix             1 all box/relax aniso 0.0 vmax 0.01
minimize        1.0e-15 1.0e-15 10000 100000
Step Temp E_pair E_mol TotEng Press Volume
13506 1.5281217e-10    128.16464    1688.5603    1816.7249   -1378.2014    1668.8094
Loop time of 0.0124548 on 1 procs for 2 steps with 164 atoms

Minimization stats:
  Stopping criterion = linesearch alpha is zero
  Energy initial, next-to-last, final =
  Force two-norm initial, final = 162.327 38.255
  Force max component initial, final = 105.38 26.8592
  Final line search alpha, max atom move = 6.78094e-12 1.82131e-10
  Iterations, force evaluations = 2 55

unfix           1
min_style       fire
variable        tempstp    equal $(step)
variable        tempstp    equal 13508
variable        CellMinStep equal 13508
minimize        1.0e-15 1.0e-15 10000 100000
  Parameters for fire:
    dmax delaystep dtgrow dtshrink alpha0 alphashrink tmax tmin    integrator halfstepback
     0.1        20    1.1      0.5   0.25        0.99   10 0.02 eulerimplicit          yes
Step Temp E_pair E_mol TotEng Press
13508            0    130.11795    1686.4877    1816.6056    351.73962
Loop time of 0.409005 on 1 procs for 2174 steps with 164 atoms

Minimization stats:
  Stopping criterion = energy tolerance
  Energy initial, next-to-last, final =
  Force two-norm initial, final = 12.2179 4.12005e-05
  Force max component initial, final = 1.9293 8.86178e-06
  Final line search alpha, max atom move = 0 0
  Iterations, force evaluations = 2174 2174

variable        AtomMinStep equal 13508
variable        temppe     equal $(pe)
variable        temppe     equal 1816.5000898496830359
variable        min_E      equal abs(1816.7249004294-1816.50008984968)
variable        prev_E     equal 1816.50008984968
next            iter
jump            SELF loop_min
min_style       cg
fix             1 all box/relax aniso 0.0 vmax 0.01
minimize        1.0e-15 1.0e-15 10000 100000
Step Temp E_pair E_mol TotEng Press Volume
15682 1.1777526e-10    129.20241    1687.2977    1816.5001    -801.3924    1667.1703
Loop time of 0.0122341 on 1 procs for 2 steps with 164 atoms

Minimization stats:
  Stopping criterion = linesearch alpha is zero
  Energy initial, next-to-last, final =
  Force two-norm initial, final = 141.163 31.336
  Force max component initial, final = 92.0523 22.5377
  Final line search alpha, max atom move = 7.84995e-12 1.76919e-10
  Iterations, force evaluations = 2 55

unfix           1
min_style       fire
variable        tempstp    equal $(step)
variable        tempstp    equal 15684
variable        CellMinStep equal 15684
minimize        1.0e-15 1.0e-15 10000 100000
  Parameters for fire:
    dmax delaystep dtgrow dtshrink alpha0 alphashrink tmax tmin    integrator halfstepback
     0.1        20    1.1      0.5   0.25        0.99   10 0.02 eulerimplicit          yes
Step Temp E_pair E_mol TotEng Press
15684            0    130.51809    1685.8859     1816.404    233.29194
Loop time of 0.478022 on 1 procs for 2533 steps with 164 atoms

Minimization stats:
  Stopping criterion = energy tolerance
  Energy initial, next-to-last, final =
  Force two-norm initial, final = 10.9307 3.96853e-05
  Force max component initial, final = 1.60543 6.63355e-06
  Final line search alpha, max atom move = 0 0
  Iterations, force evaluations = 2533 2533

variable        AtomMinStep equal 15684
variable        temppe     equal $(pe)
variable        temppe     equal 1816.3624339777727528
variable        min_E      equal abs(1816.50008984968-1816.36243397777)
variable        prev_E     equal 1816.36243397777
next            iter
jump            SELF loop_min
min_style       cg
fix             1 all box/relax aniso 0.0 vmax 0.01
minimize        1.0e-15 1.0e-15 10000 100000
Step Temp E_pair E_mol TotEng Press Volume
18217 1.2820984e-10    130.02905    1686.3334    1816.3624   -414.48833    1666.1908
Loop time of 0.0149892 on 1 procs for 5 steps with 164 atoms

Minimization stats:
  Stopping criterion = linesearch alpha is zero
  Energy initial, next-to-last, final =
  Force two-norm initial, final = 126.056 56.3414
  Force max component initial, final = 91.6401 44.8719
  Final line search alpha, max atom move = 2.08842e-12 9.37113e-11
  Iterations, force evaluations = 5 65

unfix           1
min_style       fire
variable        tempstp    equal $(step)
variable        tempstp    equal 18222
variable        CellMinStep equal 18222
minimize        1.0e-15 1.0e-15 10000 100000
  Parameters for fire:
    dmax delaystep dtgrow dtshrink alpha0 alphashrink tmax tmin    integrator halfstepback
     0.1        20    1.1      0.5   0.25        0.99   10 0.02 eulerimplicit          yes
Step Temp E_pair E_mol TotEng Press
18222            0    132.13923    1684.0383    1816.1776    1199.7149
Loop time of 0.4108 on 1 procs for 2138 steps with 164 atoms

Minimization stats:
  Stopping criterion = energy tolerance
  Energy initial, next-to-last, final =
  Force two-norm initial, final = 8.96387 2.86099e-05
  Force max component initial, final = 1.17582 9.39163e-06
  Final line search alpha, max atom move = 0 0
  Iterations, force evaluations = 2138 2138

variable        AtomMinStep equal 18222
variable        temppe     equal $(pe)
variable        temppe     equal 1816.1218343494128931
variable        min_E      equal abs(1816.36243397777-1816.12183434941)
variable        prev_E     equal 1816.12183434941
next            iter
jump            SELF loop_min
min_style       cg
fix             1 all box/relax aniso 0.0 vmax 0.01
minimize        1.0e-15 1.0e-15 10000 100000
Step Temp E_pair E_mol TotEng Press Volume
20360 6.6960435e-11    131.13748    1684.9844    1816.1218    326.25226    1664.3367
Loop time of 0.0120146 on 1 procs for 2 steps with 164 atoms

Minimization stats:
  Stopping criterion = linesearch alpha is zero
  Energy initial, next-to-last, final =
  Force two-norm initial, final = 111.61 17.8541
  Force max component initial, final = 97.6897 13.2696
  Final line search alpha, max atom move = 2.12612e-11 2.82127e-10
  Iterations, force evaluations = 2 53

unfix           1
min_style       fire
variable        tempstp    equal $(step)
variable        tempstp    equal 20362
variable        CellMinStep equal 20362
minimize        1.0e-15 1.0e-15 10000 100000
  Parameters for fire:
    dmax delaystep dtgrow dtshrink alpha0 alphashrink tmax tmin    integrator halfstepback
     0.1        20    1.1      0.5   0.25        0.99   10 0.02 eulerimplicit          yes
Step Temp E_pair E_mol TotEng Press
20362            0    131.07681    1684.9511    1816.0279   -71.683713
Loop time of 0.437004 on 1 procs for 2303 steps with 164 atoms

Minimization stats:
  Stopping criterion = energy tolerance
  Energy initial, next-to-last, final =
  Force two-norm initial, final = 8.7573 4.11139e-05
  Force max component initial, final = 1.58263 9.59341e-06
  Final line search alpha, max atom move = 0 0
  Iterations, force evaluations = 2303 2303

variable        AtomMinStep equal 20362
variable        temppe     equal $(pe)
variable        temppe     equal 1815.9396975585623295
variable        min_E      equal abs(1816.12183434941-1815.93969755856)
variable        prev_E     equal 1815.93969755856
next            iter
jump            SELF loop_min
min_style       cg
fix             1 all box/relax aniso 0.0 vmax 0.01
minimize        1.0e-15 1.0e-15 10000 100000
Step Temp E_pair E_mol TotEng Press Volume
22665 1.1165758e-10    131.34906    1684.5906    1815.9397    277.52688    1664.7361
Loop time of 0.0144558 on 1 procs for 5 steps with 164 atoms

Minimization stats:
  Stopping criterion = linesearch alpha is zero
  Energy initial, next-to-last, final =
  Force two-norm initial, final = 102.169 32.2508
  Force max component initial, final = 89.3428 20.5499
  Final line search alpha, max atom move = 7.25122e-12 1.49012e-10
  Iterations, force evaluations = 5 63

unfix           1
min_style       fire
variable        tempstp    equal $(step)
variable        tempstp    equal 22670
variable        CellMinStep equal 22670
minimize        1.0e-15 1.0e-15 10000 100000
  Parameters for fire:
    dmax delaystep dtgrow dtshrink alpha0 alphashrink tmax tmin    integrator halfstepback
     0.1        20    1.1      0.5   0.25        0.99   10 0.02 eulerimplicit          yes
Step Temp E_pair E_mol TotEng Press
22670            0     132.1843    1683.6094    1815.7937    693.75389
Loop time of 0.434179 on 1 procs for 2276 steps with 164 atoms

Minimization stats:
  Stopping criterion = energy tolerance
  Energy initial, next-to-last, final =
  Force two-norm initial, final = 11.332 4.51078e-05
  Force max component initial, final = 2.17494 1.13994e-05
  Final line search alpha, max atom move = 0 0
  Iterations, force evaluations = 2276 2276

variable        AtomMinStep equal 22670
variable        temppe     equal $(pe)
variable        temppe     equal 1815.7081702132952614
variable        min_E      equal abs(1815.93969755856-1815.7081702133)
variable        prev_E     equal 1815.7081702133
next            iter
jump            SELF loop_min
min_style       cg
fix             1 all box/relax aniso 0.0 vmax 0.01
minimize        1.0e-15 1.0e-15 10000 100000
Step Temp E_pair E_mol TotEng Press Volume
24946 1.5247968e-10    131.97569    1683.7325    1815.7082    523.15142    1664.3775
Loop time of 0.0138895 on 1 procs for 4 steps with 164 atoms

Minimization stats:
  Stopping criterion = linesearch alpha is zero
  Energy initial, next-to-last, final =
  Force two-norm initial, final = 90.7477 20.9294
  Force max component initial, final = 84.3891 19.5704
  Final line search alpha, max atom move = 2.22111e-11 4.34681e-10
  Iterations, force evaluations = 4 61

unfix           1
min_style       fire
variable        tempstp    equal $(step)
variable        tempstp    equal 24950
variable        CellMinStep equal 24950
minimize        1.0e-15 1.0e-15 10000 100000
  Parameters for fire:
    dmax delaystep dtgrow dtshrink alpha0 alphashrink tmax tmin    integrator halfstepback
     0.1        20    1.1      0.5   0.25        0.99   10 0.02 eulerimplicit          yes
Step Temp E_pair E_mol TotEng Press
24950            0    131.53902    1684.0907    1815.6298   -330.96297
Loop time of 0.428829 on 1 procs for 2268 steps with 164 atoms

Minimization stats:
  Stopping criterion = energy tolerance
  Energy initial, next-to-last, final =
  Force two-norm initial, final = 6.4895 4.01386e-05
  Force max component initial, final = 1.23998 1.09532e-05
  Final line search alpha, max atom move = 0 0
  Iterations, force evaluations = 2268 2268

variable        AtomMinStep equal 24950
variable        temppe     equal $(pe)
variable        temppe     equal 1815.57881239215817
variable        min_E      equal abs(1815.7081702133-1815.57881239216)
variable        prev_E     equal 1815.57881239216
next            iter
jump            SELF loop_min
min_style       cg
fix             1 all box/relax aniso 0.0 vmax 0.01
minimize        1.0e-15 1.0e-15 10000 100000
Step Temp E_pair E_mol TotEng Press Volume
27218 1.3344061e-10    132.00161    1683.5772    1815.5788    392.27574    1665.1061
Loop time of 0.012552 on 1 procs for 1 steps with 164 atoms

Minimization stats:
  Stopping criterion = linesearch alpha is zero
  Energy initial, next-to-last, final =
  Force two-norm initial, final = 82.9603 82.9603
  Force max component initial, final = 75.7648 75.7648
  Final line search alpha, max atom move = 9.83382e-13 7.45058e-11
  Iterations, force evaluations = 1 55

unfix           1
min_style       fire
variable        tempstp    equal $(step)
variable        tempstp    equal 27219
variable        CellMinStep equal 27219
minimize        1.0e-15 1.0e-15 10000 100000
  Parameters for fire:
    dmax delaystep dtgrow dtshrink alpha0 alphashrink tmax tmin    integrator halfstepback
     0.1        20    1.1      0.5   0.25        0.99   10 0.02 eulerimplicit          yes
Step Temp E_pair E_mol TotEng Press
27219            0    132.00161    1683.5772    1815.5788    392.27574
Loop time of 0.0106678 on 1 procs for 54 steps with 164 atoms

Minimization stats:
  Stopping criterion = energy tolerance
  Energy initial, next-to-last, final =
  Force two-norm initial, final = 4.01386e-05 3.5637e-05
  Force max component initial, final = 1.09532e-05 9.66614e-06
  Final line search alpha, max atom move = 0 0
  Iterations, force evaluations = 54 54

variable        AtomMinStep equal 27219
variable        temppe     equal $(pe)
variable        temppe     equal 1815.5788123920087855
variable        min_E      equal abs(1815.57881239216-1815.57881239201)
jump SELF break_min
undump          NiPyC2_relax_sc211_ortho_functionalized_O-CH2-CH3_xyzmov

# Dump last snapshot for restart
variable curr_lx equal lx
variable curr_ly equal ly
variable curr_lz equal lz
change_box all x final 0 15.7848367916326 y final 0 10.7347442971356 z final 0 9.82675477291984
  triclinic box = (0 0.894328 0.223762) to (15.7848 11.6291 10.0505) with tilt (0 -0.217681 0)
  triclinic box = (0 0 0.223762) to (15.7848 10.7347 10.0505) with tilt (0 -0.217681 0)
  triclinic box = (0 0 0) to (15.7848 10.7347 9.82675) with tilt (0 -0.217681 0)

reset_timestep 0
dump            NiPyC2_relax_sc211_ortho_functionalized_O-CH2-CH3_restart all atom 1 NiPyC2_relax_sc211_ortho_functionalized_O-CH2-CH3_restart.lammpstrj
dump_modify     NiPyC2_relax_sc211_ortho_functionalized_O-CH2-CH3_restart scale no sort id
run 0
Step Temp E_pair E_mol TotEng Press
0 8.9937084e-11    132.00161    1683.5772    1815.5788    392.27508
Loop time of 7.7099e-07 on 1 procs for 0 steps with 164 atoms

undump          NiPyC2_relax_sc211_ortho_functionalized_O-CH2-CH3_restart
