units           real
atom_style      full
boundary        p p p

pair_style      lj/cut 5.000
bond_style      harmonic
angle_style     hybrid cosine/periodic fourier
dihedral_style  harmonic
improper_style  fourier

pair_modify     tail yes mix arithmetic
special_bonds   lj/coul 0.0 0.0 1.0
dielectric      1.0
box tilt        large
read_data       data.NiPyC2_relax_sc211_meta_functionalized_O-CH2-CH3
  triclinic box = (0 0 0) to (12.5056 12.5234 10.2743) with tilt (0 -0.227594 0)
  reading atoms ...
  164 atoms
  scanning bonds ...
  scanning angles ...
  scanning dihedrals ...
  scanning impropers ...
  reading bonds ...
  184 bonds
  reading angles ...
  348 angles
  reading dihedrals ...
  368 dihedrals
  reading impropers ...
  168 impropers

#### Atom Groupings ####
group           fram     id   1:164
164 atoms in group fram
#### END Atom Groupings ####

dump            NiPyC2_relax_sc211_meta_functionalized_O-CH2-CH3_xyzmov all xyz 20000 NiPyC2_relax_sc211_meta_functionalized_O-CH2-CH3_mov.xyz
dump_modify     NiPyC2_relax_sc211_meta_functionalized_O-CH2-CH3_xyzmov element Ni O N C H O C
min_style       cg
print           "MinStep,CellMinStep,AtomMinStep,FinalStep,Energy,EDiff" file NiPyC2_relax_sc211_meta_functionalized_O-CH2-CH3.min.csv screen no
variable        min_eval   equal 1.00e-06
variable        prev_E     equal 50000.00
variable        iter       loop 100000
label           loop_min
min_style       cg
fix             1 all box/relax aniso 0.0 vmax 0.01
minimize        1.0e-15 1.0e-15 10000 100000
  update every 1 steps, delay 0 steps, check yes
Step Temp E_pair E_mol TotEng Press Volume
0            0     24312242     2379.749     24314622 4.1448921e+09    1609.0819
Loop time of 0.242378 on 1 procs for 599 steps with 164 atoms

Minimization stats:
  Stopping criterion = linesearch alpha is zero
  Energy initial, next-to-last, final =
  Force two-norm initial, final = 3.52862e+08 64.6234
  Force max component initial, final = 1.50725e+08 29.4254
  Final line search alpha, max atom move = 2.49402e-12 7.33875e-11
  Iterations, force evaluations = 599 1047

unfix           1
min_style       fire
variable        tempstp    equal $(step)
variable        tempstp    equal 599
variable        CellMinStep equal 599
minimize        1.0e-15 1.0e-15 10000 100000
  Parameters for fire:
    dmax delaystep dtgrow dtshrink alpha0 alphashrink tmax tmin    integrator halfstepback
     0.1        20    1.1      0.5   0.25        0.99   10 0.02 eulerimplicit          yes
Step Temp E_pair E_mol TotEng Press
599            0    127.78684    1609.8578    1737.6446    764.27734
Loop time of 1.0733 on 1 procs for 5353 steps with 164 atoms

Minimization stats:
  Stopping criterion = energy tolerance
  Energy initial, next-to-last, final =
  Force two-norm initial, final = 55.3839 3.6166e-05
  Force max component initial, final = 15.2211 1.41105e-05
  Final line search alpha, max atom move = 0 0
  Iterations, force evaluations = 5353 5353

variable        AtomMinStep equal 599
variable        temppe     equal $(pe)
variable        temppe     equal 1686.9111206737895827
variable        min_E      equal abs(50000-1686.91112067379)
variable        prev_E     equal 1686.91112067379
next            iter
jump            SELF loop_min
min_style       cg
fix             1 all box/relax aniso 0.0 vmax 0.01
minimize        1.0e-15 1.0e-15 10000 100000
Step Temp E_pair E_mol TotEng Press Volume
5952 8.0883735e-11    96.486047    1590.4251    1686.9111    -6097.406    1568.5828
Loop time of 0.0154619 on 1 procs for 6 steps with 164 atoms

Minimization stats:
  Stopping criterion = linesearch alpha is zero
  Energy initial, next-to-last, final =
  Force two-norm initial, final = 294.438 33.188
  Force max component initial, final = 271.011 14.6905
  Final line search alpha, max atom move = 5.69493e-12 8.36614e-11
  Iterations, force evaluations = 6 65

unfix           1
min_style       fire
variable        tempstp    equal $(step)
variable        tempstp    equal 5958
variable        CellMinStep equal 5958
minimize        1.0e-15 1.0e-15 10000 100000
  Parameters for fire:
    dmax delaystep dtgrow dtshrink alpha0 alphashrink tmax tmin    integrator halfstepback
     0.1        20    1.1      0.5   0.25        0.99   10 0.02 eulerimplicit          yes
Step Temp E_pair E_mol TotEng Press
5958            0    104.08067    1582.1238    1686.2044    534.70152
Loop time of 0.834818 on 1 procs for 4176 steps with 164 atoms

Minimization stats:
  Stopping criterion = energy tolerance
  Energy initial, next-to-last, final =
  Force two-norm initial, final = 25.2492 3.43704e-05
  Force max component initial, final = 4.95276 1.31528e-05
  Final line search alpha, max atom move = 0 0
  Iterations, force evaluations = 4176 4176

variable        AtomMinStep equal 5958
variable        temppe     equal $(pe)
variable        temppe     equal 1685.5215234752995457
variable        min_E      equal abs(1686.91112067379-1685.5215234753)
variable        prev_E     equal 1685.5215234753
next            iter
jump            SELF loop_min
min_style       cg
fix             1 all box/relax aniso 0.0 vmax 0.01
minimize        1.0e-15 1.0e-15 10000 100000
Step Temp E_pair E_mol TotEng Press Volume
10134 7.9466012e-11    100.77442    1584.7471    1685.5215   -1989.5233    1559.8942
Loop time of 0.0134615 on 1 procs for 3 steps with 164 atoms

Minimization stats:
  Stopping criterion = linesearch alpha is zero
  Energy initial, next-to-last, final =
  Force two-norm initial, final = 159.459 15.8791
  Force max component initial, final = 139.956 3.03083
  Final line search alpha, max atom move = 4.79262e-11 1.45256e-10
  Iterations, force evaluations = 3 59

unfix           1
min_style       fire
variable        tempstp    equal $(step)
variable        tempstp    equal 10137
variable        CellMinStep equal 10137
minimize        1.0e-15 1.0e-15 10000 100000
  Parameters for fire:
    dmax delaystep dtgrow dtshrink alpha0 alphashrink tmax tmin    integrator halfstepback
     0.1        20    1.1      0.5   0.25        0.99   10 0.02 eulerimplicit          yes
Step Temp E_pair E_mol TotEng Press
10137            0    102.70387    1582.7161    1685.4199   -73.391417
Loop time of 0.774835 on 1 procs for 3811 steps with 164 atoms

Minimization stats:
  Stopping criterion = energy tolerance
  Energy initial, next-to-last, final =
  Force two-norm initial, final = 15.3076 3.85078e-05
  Force max component initial, final = 2.92624 1.4485e-05
  Final line search alpha, max atom move = 0 0
  Iterations, force evaluations = 3811 3811

variable        AtomMinStep equal 10137
variable        temppe     equal $(pe)
variable        temppe     equal 1685.2809757833833828
variable        min_E      equal abs(1685.5215234753-1685.28097578338)
variable        prev_E     equal 1685.28097578338
next            iter
jump            SELF loop_min
min_style       cg
fix             1 all box/relax aniso 0.0 vmax 0.01
minimize        1.0e-15 1.0e-15 10000 100000
Step Temp E_pair E_mol TotEng Press Volume
13948 1.0531742e-10    101.90494     1583.376     1685.281   -1041.5469    1557.7148
Loop time of 0.0127711 on 1 procs for 2 steps with 164 atoms

Minimization stats:
  Stopping criterion = linesearch alpha is zero
  Energy initial, next-to-last, final =
  Force two-norm initial, final = 131.77 40.9645
  Force max component initial, final = 105.437 37.095
  Final line search alpha, max atom move = 4.4077e-12 1.63504e-10
  Iterations, force evaluations = 2 55

unfix           1
min_style       fire
variable        tempstp    equal $(step)
variable        tempstp    equal 13950
variable        CellMinStep equal 13950
minimize        1.0e-15 1.0e-15 10000 100000
  Parameters for fire:
    dmax delaystep dtgrow dtshrink alpha0 alphashrink tmax tmin    integrator halfstepback
     0.1        20    1.1      0.5   0.25        0.99   10 0.02 eulerimplicit          yes
Step Temp E_pair E_mol TotEng Press
13950            0    103.13037    1582.0191    1685.1494    401.90169
Loop time of 0.647084 on 1 procs for 3218 steps with 164 atoms

Minimization stats:
  Stopping criterion = energy tolerance
  Energy initial, next-to-last, final =
  Force two-norm initial, final = 12.3795 4.18859e-05
  Force max component initial, final = 2.01678 1.56224e-05
  Final line search alpha, max atom move = 0 0
  Iterations, force evaluations = 3218 3218

variable        AtomMinStep equal 13950
variable        temppe     equal $(pe)
variable        temppe     equal 1685.0018714172276759
variable        min_E      equal abs(1685.28097578338-1685.00187141723)
variable        prev_E     equal 1685.00187141723
next            iter
jump            SELF loop_min
min_style       cg
fix             1 all box/relax aniso 0.0 vmax 0.01
minimize        1.0e-15 1.0e-15 10000 100000
Step Temp E_pair E_mol TotEng Press Volume
17168 1.2411064e-10    102.46431    1582.5376    1685.0019   -509.72669      1556.18
Loop time of 0.0124728 on 1 procs for 2 steps with 164 atoms

Minimization stats:
  Stopping criterion = linesearch alpha is zero
  Energy initial, next-to-last, final =
  Force two-norm initial, final = 114.562 30.6819
  Force max component initial, final = 85.4021 24.1774
  Final line search alpha, max atom move = 1.31691e-11 3.18395e-10
  Iterations, force evaluations = 2 53

unfix           1
min_style       fire
variable        tempstp    equal $(step)
variable        tempstp    equal 17170
variable        CellMinStep equal 17170
minimize        1.0e-15 1.0e-15 10000 100000
  Parameters for fire:
    dmax delaystep dtgrow dtshrink alpha0 alphashrink tmax tmin    integrator halfstepback
     0.1        20    1.1      0.5   0.25        0.99   10 0.02 eulerimplicit          yes
Step Temp E_pair E_mol TotEng Press
17170            0    102.98407    1581.9142    1684.8983    46.303108
Loop time of 0.855539 on 1 procs for 4248 steps with 164 atoms

Minimization stats:
  Stopping criterion = energy tolerance
  Energy initial, next-to-last, final =
  Force two-norm initial, final = 10.9645 4.40455e-05
  Force max component initial, final = 1.68786 1.60065e-05
  Final line search alpha, max atom move = 0 0
  Iterations, force evaluations = 4248 4248

variable        AtomMinStep equal 17170
variable        temppe     equal $(pe)
variable        temppe     equal 1684.8113720212516
variable        min_E      equal abs(1685.00187141723-1684.81137202125)
variable        prev_E     equal 1684.81137202125
next            iter
jump            SELF loop_min
min_style       cg
fix             1 all box/relax aniso 0.0 vmax 0.01
minimize        1.0e-15 1.0e-15 10000 100000
Step Temp E_pair E_mol TotEng Press Volume
21418 1.1404963e-10     102.6986    1582.1128    1684.8114   -310.18021     1555.411
Loop time of 0.0122979 on 1 procs for 2 steps with 164 atoms

Minimization stats:
  Stopping criterion = linesearch alpha is zero
  Energy initial, next-to-last, final =
  Force two-norm initial, final = 102.17 25.7895
  Force max component initial, final = 74.7576 17.1087
  Final line search alpha, max atom move = 1.6942e-11 2.89855e-10
  Iterations, force evaluations = 2 53

unfix           1
min_style       fire
variable        tempstp    equal $(step)
variable        tempstp    equal 21420
variable        CellMinStep equal 21420
minimize        1.0e-15 1.0e-15 10000 100000
  Parameters for fire:
    dmax delaystep dtgrow dtshrink alpha0 alphashrink tmax tmin    integrator halfstepback
     0.1        20    1.1      0.5   0.25        0.99   10 0.02 eulerimplicit          yes
Step Temp E_pair E_mol TotEng Press
21420            0    102.98289    1581.7632    1684.7461   -90.693578
Loop time of 0.639336 on 1 procs for 3189 steps with 164 atoms

Minimization stats:
  Stopping criterion = energy tolerance
  Energy initial, next-to-last, final =
  Force two-norm initial, final = 9.88235 4.16402e-05
  Force max component initial, final = 1.50624 1.49912e-05
  Final line search alpha, max atom move = 0 0
  Iterations, force evaluations = 3189 3189

variable        AtomMinStep equal 21420
variable        temppe     equal $(pe)
variable        temppe     equal 1684.6656902853871998
variable        min_E      equal abs(1684.81137202125-1684.66569028539)
variable        prev_E     equal 1684.66569028539
next            iter
jump            SELF loop_min
min_style       cg
fix             1 all box/relax aniso 0.0 vmax 0.01
minimize        1.0e-15 1.0e-15 10000 100000
Step Temp E_pair E_mol TotEng Press Volume
24609 1.1561396e-10    102.80802    1581.8577    1684.6657   -229.05138    1554.9372
Loop time of 0.0147018 on 1 procs for 4 steps with 164 atoms

Minimization stats:
  Stopping criterion = linesearch alpha is zero
  Energy initial, next-to-last, final =
  Force two-norm initial, final = 90.9695 46.2995
  Force max component initial, final = 67.179 34.2743
  Final line search alpha, max atom move = 3.49673e-12 1.19848e-10
  Iterations, force evaluations = 4 61

unfix           1
min_style       fire
variable        tempstp    equal $(step)
variable        tempstp    equal 24613
variable        CellMinStep equal 24613
minimize        1.0e-15 1.0e-15 10000 100000
  Parameters for fire:
    dmax delaystep dtgrow dtshrink alpha0 alphashrink tmax tmin    integrator halfstepback
     0.1        20    1.1      0.5   0.25        0.99   10 0.02 eulerimplicit          yes
Step Temp E_pair E_mol TotEng Press
24613            0    104.13731    1580.4636    1684.6009    1129.1616
Loop time of 0.695537 on 1 procs for 3453 steps with 164 atoms

Minimization stats:
  Stopping criterion = energy tolerance
  Energy initial, next-to-last, final =
  Force two-norm initial, final = 7.77414 3.50591e-05
  Force max component initial, final = 1.22592 1.23777e-05
  Final line search alpha, max atom move = 0 0
  Iterations, force evaluations = 3453 3453

variable        AtomMinStep equal 24613
variable        temppe     equal $(pe)
variable        temppe     equal 1684.56652160321255
variable        min_E      equal abs(1684.66569028539-1684.56652160321)
variable        prev_E     equal 1684.56652160321
next            iter
jump            SELF loop_min
min_style       cg
fix             1 all box/relax aniso 0.0 vmax 0.01
minimize        1.0e-15 1.0e-15 10000 100000
Step Temp E_pair E_mol TotEng Press Volume
28066 8.1358876e-11    103.56612    1581.0004    1684.5665    419.36642    1553.3767
Loop time of 0.0132755 on 1 procs for 1 steps with 164 atoms

Minimization stats:
  Stopping criterion = linesearch alpha is zero
  Energy initial, next-to-last, final =
  Force two-norm initial, final = 82.8301 82.8301
  Force max component initial, final = 70.0279 70.0279
  Final line search alpha, max atom move = 1.06394e-12 7.45058e-11
  Iterations, force evaluations = 1 55

unfix           1
min_style       fire
variable        tempstp    equal $(step)
variable        tempstp    equal 28067
variable        CellMinStep equal 28067
minimize        1.0e-15 1.0e-15 10000 100000
  Parameters for fire:
    dmax delaystep dtgrow dtshrink alpha0 alphashrink tmax tmin    integrator halfstepback
     0.1        20    1.1      0.5   0.25        0.99   10 0.02 eulerimplicit          yes
Step Temp E_pair E_mol TotEng Press
28067            0    103.56612    1581.0004    1684.5665    419.36642
Loop time of 0.0124574 on 1 procs for 58 steps with 164 atoms

Minimization stats:
  Stopping criterion = energy tolerance
  Energy initial, next-to-last, final =
  Force two-norm initial, final = 3.50591e-05 3.46785e-05
  Force max component initial, final = 1.23777e-05 1.14653e-05
  Final line search alpha, max atom move = 0 0
  Iterations, force evaluations = 58 58

variable        AtomMinStep equal 28067
variable        temppe     equal $(pe)
variable        temppe     equal 1684.5665216030679403
variable        min_E      equal abs(1684.56652160321-1684.56652160307)
jump SELF break_min
undump          NiPyC2_relax_sc211_meta_functionalized_O-CH2-CH3_xyzmov

# Dump last snapshot for restart
variable curr_lx equal lx
variable curr_ly equal ly
variable curr_lz equal lz
change_box all x final 0 13.2981484920535 y final 0 10.5936333315122 z final 0 11.0265761796932
  triclinic box = (0 0.964883 -0.376149) to (13.2981 11.5585 10.6504) with tilt (0 -0.244259 0)
  triclinic box = (0 0 -0.376149) to (13.2981 10.5936 10.6504) with tilt (0 -0.244259 0)
  triclinic box = (0 0 0) to (13.2981 10.5936 11.0266) with tilt (0 -0.244259 0)

reset_timestep 0
dump            NiPyC2_relax_sc211_meta_functionalized_O-CH2-CH3_restart all atom 1 NiPyC2_relax_sc211_meta_functionalized_O-CH2-CH3_restart.lammpstrj
dump_modify     NiPyC2_relax_sc211_meta_functionalized_O-CH2-CH3_restart scale no sort id
run 0
Step Temp E_pair E_mol TotEng Press
0 1.1141259e-10    103.56612    1581.0004    1684.5665     419.3666
Loop time of 7.91013e-07 on 1 procs for 0 steps with 164 atoms

undump          NiPyC2_relax_sc211_meta_functionalized_O-CH2-CH3_restart
units           real
atom_style      full
boundary        p p p

pair_style      lj/cut 5.000
bond_style      harmonic
angle_style     hybrid fourier cosine/periodic
dihedral_style  harmonic
improper_style  fourier

dielectric      1.0
special_bonds   lj/coul 0.0 0.0 1.0
pair_modify     tail yes mix arithmetic
box tilt        large
read_data       data.NiPyC2_relax_sc211_meta_functionalized_O-CH2-CH3
  triclinic box = (0 0 0) to (12.5056 12.5234 10.2743) with tilt (0 -0.227594 0)
  reading atoms ...
  164 atoms
  scanning bonds ...
  scanning angles ...
  scanning dihedrals ...
  scanning impropers ...
  reading bonds ...
  184 bonds
  reading angles ...
  348 angles
  reading dihedrals ...
  368 dihedrals
  reading impropers ...
  168 impropers

#### Atom Groupings ####
group           fram     id   1:164
164 atoms in group fram
#### END Atom Groupings ####

dump            NiPyC2_relax_sc211_meta_functionalized_O-CH2-CH3_xyzmov all xyz 20000 NiPyC2_relax_sc211_meta_functionalized_O-CH2-CH3_mov.xyz
dump_modify     NiPyC2_relax_sc211_meta_functionalized_O-CH2-CH3_xyzmov element Ni O N C H O C
min_style       cg
print           "MinStep,CellMinStep,AtomMinStep,FinalStep,Energy,EDiff,vol,lx,ly,lz,xy,xz,yz" file NiPyC2_relax_sc211_meta_functionalized_O-CH2-CH3.min.csv screen no
variable        min_eval   equal 1.00e-06
variable        prev_E     equal 50000.00
variable        iter       loop 100000
label           loop_min
min_style       cg
variable        tempstp    equal $(step)
variable        tempstp    equal 0
variable        CellMinStep equal 0
minimize        1.0e-15 1.0e-15 10000 100000
  update every 1 steps, delay 0 steps, check yes
Step Temp E_pair E_mol TotEng Press
0            0     24312242     2379.749     24314622 4.1448921e+09
Loop time of 0.132445 on 1 procs for 280 steps with 164 atoms

Minimization stats:
  Stopping criterion = linesearch alpha is zero
  Energy initial, next-to-last, final =
  Force two-norm initial, final = 3.05862e+08 17.1304
  Force max component initial, final = 1.50725e+08 4.24657
  Final line search alpha, max atom move = 4.16e-11 1.76657e-10
  Iterations, force evaluations = 280 579

variable        AtomMinStep equal 0
variable        temppe     equal $(pe)
variable        temppe     equal 1852.694441508170712
variable        min_E      equal abs(50000-1852.69444150817)
variable        prev_E     equal 1852.69444150817
next            iter
jump            SELF loop_min
min_style       cg
variable        tempstp    equal $(step)
variable        tempstp    equal 280
variable        CellMinStep equal 280
minimize        1.0e-15 1.0e-15 10000 100000
Step Temp E_pair E_mol TotEng Press
280            0    70.210442     1782.484    1852.6944   -62270.222
Loop time of 0.0263818 on 1 procs for 34 steps with 164 atoms

Minimization stats:
  Stopping criterion = linesearch alpha is zero
  Energy initial, next-to-last, final =
  Force two-norm initial, final = 17.1304 9.22177
  Force max component initial, final = 4.24657 2.01801
  Final line search alpha, max atom move = 8.20731e-11 1.65624e-10
  Iterations, force evaluations = 34 121

variable        AtomMinStep equal 280
variable        temppe     equal $(pe)
variable        temppe     equal 1850.6999746497656361
variable        min_E      equal abs(1852.69444150817-1850.69997464977)
variable        prev_E     equal 1850.69997464977
next            iter
jump            SELF loop_min
min_style       cg
variable        tempstp    equal $(step)
variable        tempstp    equal 314
variable        CellMinStep equal 314
minimize        1.0e-15 1.0e-15 10000 100000
Step Temp E_pair E_mol TotEng Press
314            0    68.601629    1782.0983       1850.7   -63097.232
Loop time of 0.013971 on 1 procs for 6 steps with 164 atoms

Minimization stats:
  Stopping criterion = linesearch alpha is zero
  Energy initial, next-to-last, final =
  Force two-norm initial, final = 9.22177 6.13588
  Force max component initial, final = 2.01801 1.28049
  Final line search alpha, max atom move = 2.94554e-10 3.77172e-10
  Iterations, force evaluations = 6 65

variable        AtomMinStep equal 314
variable        temppe     equal $(pe)
variable        temppe     equal 1850.6450027071268778
variable        min_E      equal abs(1850.69997464977-1850.64500270713)
variable        prev_E     equal 1850.64500270713
next            iter
jump            SELF loop_min
min_style       cg
variable        tempstp    equal $(step)
variable        tempstp    equal 320
variable        CellMinStep equal 320
minimize        1.0e-15 1.0e-15 10000 100000
Step Temp E_pair E_mol TotEng Press
320            0    68.638535    1782.0065     1850.645   -63062.261
Loop time of 0.0118475 on 1 procs for 2 steps with 164 atoms

Minimization stats:
  Stopping criterion = linesearch alpha is zero
  Energy initial, next-to-last, final =
  Force two-norm initial, final = 6.13588 4.59149
  Force max component initial, final = 1.28049 1.20891
  Final line search alpha, max atom move = 4.63726e-10 5.60604e-10
  Iterations, force evaluations = 2 58

variable        AtomMinStep equal 320
variable        temppe     equal $(pe)
variable        temppe     equal 1850.6383560294382278
variable        min_E      equal abs(1850.64500270713-1850.63835602944)
variable        prev_E     equal 1850.63835602944
next            iter
jump            SELF loop_min
min_style       cg
variable        tempstp    equal $(step)
variable        tempstp    equal 322
variable        CellMinStep equal 322
minimize        1.0e-15 1.0e-15 10000 100000
Step Temp E_pair E_mol TotEng Press
322            0    68.667951    1781.9704    1850.6384   -63045.388
Loop time of 0.0125748 on 1 procs for 2 steps with 164 atoms

Minimization stats:
  Stopping criterion = linesearch alpha is zero
  Energy initial, next-to-last, final =
  Force two-norm initial, final = 4.59149 3.79297
  Force max component initial, final = 1.20891 0.93649
  Final line search alpha, max atom move = 4.73385e-10 4.43321e-10
  Iterations, force evaluations = 2 59

variable        AtomMinStep equal 322
variable        temppe     equal $(pe)
variable        temppe     equal 1850.6350162261790047
variable        min_E      equal abs(1850.63835602944-1850.63501622618)
variable        prev_E     equal 1850.63501622618
next            iter
jump            SELF loop_min
min_style       cg
variable        tempstp    equal $(step)
variable        tempstp    equal 324
variable        CellMinStep equal 324
minimize        1.0e-15 1.0e-15 10000 100000
Step Temp E_pair E_mol TotEng Press
324            0    68.667893    1781.9671     1850.635    -63048.38
Loop time of 0.0114419 on 1 procs for 1 steps with 164 atoms

Minimization stats:
  Stopping criterion = linesearch alpha is zero
  Energy initial, next-to-last, final =
  Force two-norm initial, final = 3.79297 3.79297
  Force max component initial, final = 0.93649 0.93649
  Final line search alpha, max atom move = 7.95586e-10 7.45058e-10
  Iterations, force evaluations = 1 54

variable        AtomMinStep equal 324
variable        temppe     equal $(pe)
variable        temppe     equal 1850.635016226179232
variable        min_E      equal abs(1850.63501622618-1850.63501622618)
jump SELF break_min
undump          NiPyC2_relax_sc211_meta_functionalized_O-CH2-CH3_xyzmov

# Dump last snapshot for restart
variable curr_lx equal lx
variable curr_ly equal ly
variable curr_lz equal lz
change_box all x final 0 12.5056 y final 0 12.5234 z final 0 10.274279
  triclinic box = (0 0 0) to (12.5056 12.5234 10.2743) with tilt (0 -0.227594 0)
  triclinic box = (0 0 0) to (12.5056 12.5234 10.2743) with tilt (0 -0.227594 0)
  triclinic box = (0 0 0) to (12.5056 12.5234 10.2743) with tilt (0 -0.227594 0)

reset_timestep 0
dump            NiPyC2_relax_sc211_meta_functionalized_O-CH2-CH3_restart all atom 1 NiPyC2_relax_sc211_meta_functionalized_O-CH2-CH3_restart.lammpstrj
dump_modify     NiPyC2_relax_sc211_meta_functionalized_O-CH2-CH3_restart scale no sort id
run 0
Step Temp E_pair E_mol TotEng Press
0            0    68.667893    1781.9671     1850.635    -63048.38
Loop time of 7.50006e-07 on 1 procs for 0 steps with 164 atoms

undump          NiPyC2_relax_sc211_meta_functionalized_O-CH2-CH3_restart
