units           real
atom_style      full
boundary        p p p

pair_style      lj/cut 5.000
bond_style      harmonic
angle_style     hybrid fourier cosine/periodic
dihedral_style  harmonic
improper_style  fourier

special_bonds   lj/coul 0.0 0.0 1.0
dielectric      1.0
pair_modify     tail yes mix arithmetic
box tilt        large
read_data       data.NiPyC2_relax_sc211_ortho_functionalized_C-3CH3
  triclinic box = (0 0 0) to (12.5056 12.5234 10.2743) with tilt (0 -0.227594 0)
  reading atoms ...
  204 atoms
  scanning bonds ...
  scanning angles ...
  scanning dihedrals ...
  scanning impropers ...
  reading bonds ...
  207 bonds
  reading angles ...
  401 angles
  reading dihedrals ...
  466 dihedrals
  reading impropers ...
  168 impropers

#### Atom Groupings ####
group           1        id   188:204
17 atoms in group 1
group           1-1      id   188
1 atoms in group 1-1
group           1-2      id   189
1 atoms in group 1-2
group           1-3      id   190
1 atoms in group 1-3
group           1-4      id   191
1 atoms in group 1-4
group           1-5      id   192
1 atoms in group 1-5
group           1-6      id   193
1 atoms in group 1-6
group           1-7      id   194
1 atoms in group 1-7
group           1-8      id   195
1 atoms in group 1-8
group           1-9      id   196
1 atoms in group 1-9
group           1-10     id   197
1 atoms in group 1-10
group           1-11     id   198
1 atoms in group 1-11
group           1-12     id   199
1 atoms in group 1-12
group           1-13     id   200
1 atoms in group 1-13
group           1-14     id   201
1 atoms in group 1-14
group           1-15     id   202
1 atoms in group 1-15
group           1-16     id   203
1 atoms in group 1-16
group           1-17     id   204
1 atoms in group 1-17
group           fram     id   1:187
187 atoms in group fram
#### END Atom Groupings ####

dump            NiPyC2_relax_sc211_ortho_functionalized_C-3CH3_xyzmov all xyz 20000 NiPyC2_relax_sc211_ortho_functionalized_C-3CH3_mov.xyz
dump_modify     NiPyC2_relax_sc211_ortho_functionalized_C-3CH3_xyzmov element Ni O N C H C C C H
min_style       cg
print           "MinStep,CellMinStep,AtomMinStep,FinalStep,Energy,EDiff" file NiPyC2_relax_sc211_ortho_functionalized_C-3CH3.min.csv screen no
variable        min_eval   equal 1.00e-06
variable        prev_E     equal 50000.00
variable        iter       loop 100000
label           loop_min
min_style       cg
fix             1 all box/relax aniso 0.0 vmax 0.01
minimize        1.0e-15 1.0e-15 10000 100000
  update every 1 steps, delay 0 steps, check yes
Step Temp E_pair E_mol TotEng Press Volume
0            0 9.4865152e+09    2340.7996 9.4865175e+09 1.6170233e+12    1609.0819
Loop time of 0.612141 on 1 procs for 1257 steps with 204 atoms

Minimization stats:
  Stopping criterion = linesearch alpha is zero
  Energy initial, next-to-last, final =
  Force two-norm initial, final = 2.29315e+11 101.319
  Force max component initial, final = 1.1474e+11 77.7326
  Final line search alpha, max atom move = 1.06461e-12 8.27551e-11
  Iterations, force evaluations = 1257 2165

unfix           1
min_style       fire
variable        tempstp    equal $(step)
variable        tempstp    equal 1257
variable        CellMinStep equal 1257
minimize        1.0e-15 1.0e-15 10000 100000
  Parameters for fire:
    dmax delaystep dtgrow dtshrink alpha0 alphashrink tmax tmin    integrator halfstepback
     0.1        20    1.1      0.5   0.25        0.99   10 0.02 eulerimplicit          yes
Step Temp E_pair E_mol TotEng Press
1257            0    303.55473    2088.8113     2392.366    364.16894
Loop time of 2.53919 on 1 procs for 10000 steps with 204 atoms

Minimization stats:
  Stopping criterion = max iterations
  Energy initial, next-to-last, final =
  Force two-norm initial, final = 53.8888 0.212661
  Force max component initial, final = 13.8151 0.0991135
  Final line search alpha, max atom move = 0 0
  Iterations, force evaluations = 10000 10000

variable        AtomMinStep equal 1257
variable        temppe     equal $(pe)
variable        temppe     equal 2277.5784571800304548
variable        min_E      equal abs(50000-2277.57845718003)
variable        prev_E     equal 2277.57845718003
next            iter
jump            SELF loop_min
min_style       cg
fix             1 all box/relax aniso 0.0 vmax 0.01
minimize        1.0e-15 1.0e-15 10000 100000
Step Temp E_pair E_mol TotEng Press Volume
11257 0.0020537231    225.41393    2052.1645    2277.5797   -18909.744    1862.4677
Loop time of 0.0235873 on 1 procs for 15 steps with 204 atoms

Minimization stats:
  Stopping criterion = linesearch alpha is zero
  Energy initial, next-to-last, final =
  Force two-norm initial, final = 915.049 38.9326
  Force max component initial, final = 610.403 32.8181
  Final line search alpha, max atom move = 5.54102e-12 1.81846e-10
  Iterations, force evaluations = 15 81

unfix           1
min_style       fire
variable        tempstp    equal $(step)
variable        tempstp    equal 11272
variable        CellMinStep equal 11272
minimize        1.0e-15 1.0e-15 10000 100000
  Parameters for fire:
    dmax delaystep dtgrow dtshrink alpha0 alphashrink tmax tmin    integrator halfstepback
     0.1        20    1.1      0.5   0.25        0.99   10 0.02 eulerimplicit          yes
Step Temp E_pair E_mol TotEng Press
11272            0    261.69664    2010.5212    2272.2178   -400.71138
Loop time of 2.56677 on 1 procs for 10000 steps with 204 atoms

Minimization stats:
  Stopping criterion = max iterations
  Energy initial, next-to-last, final =
  Force two-norm initial, final = 20.9348 3.97066e-05
  Force max component initial, final = 2.5351 2.46651e-05
  Final line search alpha, max atom move = 0 0
  Iterations, force evaluations = 10000 10000

variable        AtomMinStep equal 11272
variable        temppe     equal $(pe)
variable        temppe     equal 2270.5969757312814181
variable        min_E      equal abs(2277.57845718003-2270.59697573128)
variable        prev_E     equal 2270.59697573128
next            iter
jump            SELF loop_min
min_style       cg
fix             1 all box/relax aniso 0.0 vmax 0.01
minimize        1.0e-15 1.0e-15 10000 100000
Step Temp E_pair E_mol TotEng Press Volume
21272  8.02194e-11    248.70538    2021.8916     2270.597   -4766.1642    1827.5094
Loop time of 0.0173733 on 1 procs for 2 steps with 204 atoms

Minimization stats:
  Stopping criterion = linesearch alpha is zero
  Energy initial, next-to-last, final =
  Force two-norm initial, final = 232.653 33.1012
  Force max component initial, final = 177.073 23.2851
  Final line search alpha, max atom move = 6.50033e-12 1.51361e-10
  Iterations, force evaluations = 2 55

unfix           1
min_style       fire
variable        tempstp    equal $(step)
variable        tempstp    equal 21274
variable        CellMinStep equal 21274
minimize        1.0e-15 1.0e-15 10000 100000
  Parameters for fire:
    dmax delaystep dtgrow dtshrink alpha0 alphashrink tmax tmin    integrator halfstepback
     0.1        20    1.1      0.5   0.25        0.99   10 0.02 eulerimplicit          yes
Step Temp E_pair E_mol TotEng Press
21274            0    255.24422    2015.1034    2270.3476    140.55648
Loop time of 1.11139 on 1 procs for 4324 steps with 204 atoms

Minimization stats:
  Stopping criterion = energy tolerance
  Energy initial, next-to-last, final =
  Force two-norm initial, final = 10.8094 8.69373e-05
  Force max component initial, final = 1.83942 2.76408e-05
  Final line search alpha, max atom move = 0 0
  Iterations, force evaluations = 4324 4324

variable        AtomMinStep equal 21274
variable        temppe     equal $(pe)
variable        temppe     equal 2270.2096623630468457
variable        min_E      equal abs(2270.59697573128-2270.20966236305)
variable        prev_E     equal 2270.20966236305
next            iter
jump            SELF loop_min
min_style       cg
fix             1 all box/relax aniso 0.0 vmax 0.01
minimize        1.0e-15 1.0e-15 10000 100000
Step Temp E_pair E_mol TotEng Press Volume
25598 4.2894687e-11    252.06358    2018.1461    2270.2097   -2775.5486    1822.6765
Loop time of 0.0164805 on 1 procs for 3 steps with 204 atoms

Minimization stats:
  Stopping criterion = linesearch alpha is zero
  Energy initial, next-to-last, final =
  Force two-norm initial, final = 142.394 7.89287
  Force max component initial, final = 118.059 2.73922
  Final line search alpha, max atom move = 1.47693e-10 4.04564e-10
  Iterations, force evaluations = 3 55

unfix           1
min_style       fire
variable        tempstp    equal $(step)
variable        tempstp    equal 25601
variable        CellMinStep equal 25601
minimize        1.0e-15 1.0e-15 10000 100000
  Parameters for fire:
    dmax delaystep dtgrow dtshrink alpha0 alphashrink tmax tmin    integrator halfstepback
     0.1        20    1.1      0.5   0.25        0.99   10 0.02 eulerimplicit          yes
Step Temp E_pair E_mol TotEng Press
25601            0    255.75823    2014.3563    2270.1146   -62.500633
Loop time of 0.813222 on 1 procs for 3106 steps with 204 atoms

Minimization stats:
  Stopping criterion = energy tolerance
  Energy initial, next-to-last, final =
  Force two-norm initial, final = 7.15019 3.22082e-05
  Force max component initial, final = 1.51768 1.81714e-05
  Final line search alpha, max atom move = 0 0
  Iterations, force evaluations = 3106 3106

variable        AtomMinStep equal 25601
variable        temppe     equal $(pe)
variable        temppe     equal 2270.1237221855380994
variable        min_E      equal abs(2270.20966236305-2270.12372218554)
variable        prev_E     equal 2270.12372218554
next            iter
jump            SELF loop_min
min_style       cg
fix             1 all box/relax aniso 0.0 vmax 0.01
minimize        1.0e-15 1.0e-15 10000 100000
Step Temp E_pair E_mol TotEng Press Volume
28707 6.1616857e-11    254.03886    2016.0849    2270.1237   -1626.0197    1819.9849
Loop time of 0.017664 on 1 procs for 3 steps with 204 atoms

Minimization stats:
  Stopping criterion = linesearch alpha is zero
  Energy initial, next-to-last, final =
  Force two-norm initial, final = 89.3632 5.3559
  Force max component initial, final = 79.1794 2.00042
  Final line search alpha, max atom move = 4.13893e-10 8.27961e-10
  Iterations, force evaluations = 3 53

unfix           1
min_style       fire
variable        tempstp    equal $(step)
variable        tempstp    equal 28710
variable        CellMinStep equal 28710
minimize        1.0e-15 1.0e-15 10000 100000
  Parameters for fire:
    dmax delaystep dtgrow dtshrink alpha0 alphashrink tmax tmin    integrator halfstepback
     0.1        20    1.1      0.5   0.25        0.99   10 0.02 eulerimplicit          yes
Step Temp E_pair E_mol TotEng Press
28710            0    256.17077    2013.8615    2270.0322   -44.904698
Loop time of 0.671716 on 1 procs for 2591 steps with 204 atoms

Minimization stats:
  Stopping criterion = energy tolerance
  Energy initial, next-to-last, final =
  Force two-norm initial, final = 4.82199 3.73626e-05
  Force max component initial, final = 1.06419 1.83836e-05
  Final line search alpha, max atom move = 0 0
  Iterations, force evaluations = 2591 2591

variable        AtomMinStep equal 28710
variable        temppe     equal $(pe)
variable        temppe     equal 2270.0075999237155884
variable        min_E      equal abs(2270.12372218554-2270.00759992372)
variable        prev_E     equal 2270.00759992372
next            iter
jump            SELF loop_min
min_style       cg
fix             1 all box/relax aniso 0.0 vmax 0.01
minimize        1.0e-15 1.0e-15 10000 100000
Step Temp E_pair E_mol TotEng Press Volume
31301 8.4904498e-11     255.1365    2014.8711    2270.0076   -939.86404    1818.4086
Loop time of 0.0161398 on 1 procs for 1 steps with 204 atoms

Minimization stats:
  Stopping criterion = linesearch alpha is zero
  Energy initial, next-to-last, final =
  Force two-norm initial, final = 58.3843 58.3843
  Force max component initial, final = 54.8389 54.8389
  Final line search alpha, max atom move = 2.71726e-12 1.49012e-10
  Iterations, force evaluations = 1 53

unfix           1
min_style       fire
variable        tempstp    equal $(step)
variable        tempstp    equal 31302
variable        CellMinStep equal 31302
minimize        1.0e-15 1.0e-15 10000 100000
  Parameters for fire:
    dmax delaystep dtgrow dtshrink alpha0 alphashrink tmax tmin    integrator halfstepback
     0.1        20    1.1      0.5   0.25        0.99   10 0.02 eulerimplicit          yes
Step Temp E_pair E_mol TotEng Press
31302            0     255.1365    2014.8711    2270.0076   -939.86404
Loop time of 0.0244565 on 1 procs for 93 steps with 204 atoms

Minimization stats:
  Stopping criterion = energy tolerance
  Energy initial, next-to-last, final =
  Force two-norm initial, final = 3.73626e-05 3.10351e-05
  Force max component initial, final = 1.83836e-05 1.56699e-05
  Final line search alpha, max atom move = 0 0
  Iterations, force evaluations = 93 93

variable        AtomMinStep equal 31302
variable        temppe     equal $(pe)
variable        temppe     equal 2270.0075999234290975
variable        min_E      equal abs(2270.00759992372-2270.00759992343)
jump SELF break_min
undump          NiPyC2_relax_sc211_ortho_functionalized_C-3CH3_xyzmov

# Dump last snapshot for restart
variable curr_lx equal lx
variable curr_ly equal ly
variable curr_lz equal lz
change_box all x final 0 16.0137848778394 y final 0 10.5919358251545 z final 0 10.7206756585472
  triclinic box = (0 0.965732 -0.223198) to (16.0138 11.5577 10.4975) with tilt (0 -0.237482 0)
  triclinic box = (0 0 -0.223198) to (16.0138 10.5919 10.4975) with tilt (0 -0.237482 0)
  triclinic box = (0 0 0) to (16.0138 10.5919 10.7207) with tilt (0 -0.237482 0)

reset_timestep 0
dump            NiPyC2_relax_sc211_ortho_functionalized_C-3CH3_restart all atom 1 NiPyC2_relax_sc211_ortho_functionalized_C-3CH3_restart.lammpstrj
dump_modify     NiPyC2_relax_sc211_ortho_functionalized_C-3CH3_restart scale no sort id
run 0
Step Temp E_pair E_mol TotEng Press
0 6.8194374e-11    255.13649    2014.8711    2270.0076   -939.86846
Loop time of 7.7099e-07 on 1 procs for 0 steps with 204 atoms

undump          NiPyC2_relax_sc211_ortho_functionalized_C-3CH3_restart
units           real
atom_style      full
boundary        p p p

pair_style      lj/cut 5.000
bond_style      harmonic
angle_style     hybrid cosine/periodic fourier
dihedral_style  harmonic
improper_style  fourier

dielectric      1.0
special_bonds   lj/coul 0.0 0.0 1.0
pair_modify     tail yes mix arithmetic
box tilt        large
read_data       data.NiPyC2_relax_sc211_ortho_functionalized_C-3CH3
  triclinic box = (0 0 0) to (12.5056 12.5234 10.2743) with tilt (0 -0.227594 0)
  reading atoms ...
  204 atoms
  scanning bonds ...
  scanning angles ...
  scanning dihedrals ...
  scanning impropers ...
  reading bonds ...
  207 bonds
  reading angles ...
  401 angles
  reading dihedrals ...
  466 dihedrals
  reading impropers ...
  168 impropers

#### Atom Groupings ####
group           1        id   188:204
17 atoms in group 1
group           1-1      id   188
1 atoms in group 1-1
group           1-2      id   189
1 atoms in group 1-2
group           1-3      id   190
1 atoms in group 1-3
group           1-4      id   191
1 atoms in group 1-4
group           1-5      id   192
1 atoms in group 1-5
group           1-6      id   193
1 atoms in group 1-6
group           1-7      id   194
1 atoms in group 1-7
group           1-8      id   195
1 atoms in group 1-8
group           1-9      id   196
1 atoms in group 1-9
group           1-10     id   197
1 atoms in group 1-10
group           1-11     id   198
1 atoms in group 1-11
group           1-12     id   199
1 atoms in group 1-12
group           1-13     id   200
1 atoms in group 1-13
group           1-14     id   201
1 atoms in group 1-14
group           1-15     id   202
1 atoms in group 1-15
group           1-16     id   203
1 atoms in group 1-16
group           1-17     id   204
1 atoms in group 1-17
group           fram     id   1:187
187 atoms in group fram
#### END Atom Groupings ####

dump            NiPyC2_relax_sc211_ortho_functionalized_C-3CH3_xyzmov all xyz 20000 NiPyC2_relax_sc211_ortho_functionalized_C-3CH3_mov.xyz
dump_modify     NiPyC2_relax_sc211_ortho_functionalized_C-3CH3_xyzmov element Ni O N C H C C C H
min_style       cg
print           "MinStep,CellMinStep,AtomMinStep,FinalStep,Energy,EDiff,vol,lx,ly,lz,xy,xz,yz" file NiPyC2_relax_sc211_ortho_functionalized_C-3CH3.min.csv screen no
variable        min_eval   equal 1.00e-06
variable        prev_E     equal 50000.00
variable        iter       loop 100000
label           loop_min
min_style       cg
variable        tempstp    equal $(step)
variable        tempstp    equal 0
variable        CellMinStep equal 0
minimize        1.0e-15 1.0e-15 10000 100000
  update every 1 steps, delay 0 steps, check yes
Step Temp E_pair E_mol TotEng Press
0            0 9.4865152e+09    2340.7996 9.4865175e+09 1.6170233e+12
Loop time of 7.88929 on 1 procs for 966 steps with 204 atoms

Minimization stats:
  Stopping criterion = linesearch alpha is zero
  Energy initial, next-to-last, final =
  Force two-norm initial, final = 2.11441e+11 131.011
  Force max component initial, final = 1.1474e+11 56.4055
  Final line search alpha, max atom move = 3.75839e-13 2.11994e-11
  Iterations, force evaluations = 966 26679

variable        AtomMinStep equal 0
variable        temppe     equal $(pe)
variable        temppe     equal 3725.3776198887180726
variable        min_E      equal abs(50000-3725.37761988872)
variable        prev_E     equal 3725.37761988872
next            iter
jump            SELF loop_min
min_style       cg
variable        tempstp    equal $(step)
variable        tempstp    equal 966
variable        CellMinStep equal 966
minimize        1.0e-15 1.0e-15 10000 100000
Step Temp E_pair E_mol TotEng Press
966            0    1136.5162    2588.8614    3725.3776    187425.43
Loop time of 0.0331222 on 1 procs for 3 steps with 204 atoms

Minimization stats:
  Stopping criterion = linesearch alpha is zero
  Energy initial, next-to-last, final =
  Force two-norm initial, final = 131.011 79.6282
  Force max component initial, final = 56.4055 41.7052
  Final line search alpha, max atom move = 1.11655e-12 4.65661e-11
  Iterations, force evaluations = 3 101

variable        AtomMinStep equal 966
variable        temppe     equal $(pe)
variable        temppe     equal 3725.3758155514487953
variable        min_E      equal abs(3725.37761988872-3725.37581555145)
variable        prev_E     equal 3725.37581555145
next            iter
jump            SELF loop_min
min_style       cg
variable        tempstp    equal $(step)
variable        tempstp    equal 969
variable        CellMinStep equal 969
minimize        1.0e-15 1.0e-15 10000 100000
Step Temp E_pair E_mol TotEng Press
969            0    1136.5161    2588.8597    3725.3758    187425.42
Loop time of 0.018512 on 1 procs for 1 steps with 204 atoms

Minimization stats:
  Stopping criterion = linesearch alpha is zero
  Energy initial, next-to-last, final =
  Force two-norm initial, final = 79.6282 79.6282
  Force max component initial, final = 41.7052 41.7052
  Final line search alpha, max atom move = 1.11655e-12 4.65661e-11
  Iterations, force evaluations = 1 62

variable        AtomMinStep equal 969
variable        temppe     equal $(pe)
variable        temppe     equal 3725.3758155514465216
variable        min_E      equal abs(3725.37581555145-3725.37581555145)
jump SELF break_min
undump          NiPyC2_relax_sc211_ortho_functionalized_C-3CH3_xyzmov

# Dump last snapshot for restart
variable curr_lx equal lx
variable curr_ly equal ly
variable curr_lz equal lz
change_box all x final 0 12.5056 y final 0 12.5234 z final 0 10.274279
  triclinic box = (0 0 0) to (12.5056 12.5234 10.2743) with tilt (0 -0.227594 0)
  triclinic box = (0 0 0) to (12.5056 12.5234 10.2743) with tilt (0 -0.227594 0)
  triclinic box = (0 0 0) to (12.5056 12.5234 10.2743) with tilt (0 -0.227594 0)

reset_timestep 0
dump            NiPyC2_relax_sc211_ortho_functionalized_C-3CH3_restart all atom 1 NiPyC2_relax_sc211_ortho_functionalized_C-3CH3_restart.lammpstrj
dump_modify     NiPyC2_relax_sc211_ortho_functionalized_C-3CH3_restart scale no sort id
run 0
Step Temp E_pair E_mol TotEng Press
0            0    1136.5161    2588.8597    3725.3758    187425.42
Loop time of 7.77e-07 on 1 procs for 0 steps with 204 atoms

undump          NiPyC2_relax_sc211_ortho_functionalized_C-3CH3_restart
