units           real
atom_style      full
boundary        p p p

pair_style      lj/cut 5.000
bond_style      harmonic
angle_style     cosine/periodic
dihedral_style  harmonic
improper_style  fourier

pair_modify     tail yes mix arithmetic
special_bonds   lj/coul 0.0 0.0 1.0
dielectric      1.0
box tilt        large
read_data       data.NiPyC2_relax_sc211_ortho_functionalized_CH-S
  triclinic box = (0 0 0) to (12.5056 12.5234 10.2743) with tilt (0 -0.227594 0)
  reading atoms ...
  124 atoms
  scanning bonds ...
  scanning angles ...
  scanning dihedrals ...
  scanning impropers ...
  reading bonds ...
  144 bonds
  reading angles ...
  268 angles
  reading dihedrals ...
  288 dihedrals
  reading impropers ...
  192 impropers

#### Atom Groupings ####
group           fram     id   1:124
124 atoms in group fram
#### END Atom Groupings ####

dump            NiPyC2_relax_sc211_ortho_functionalized_CH-S_xyzmov all xyz 20000 NiPyC2_relax_sc211_ortho_functionalized_CH-S_mov.xyz
dump_modify     NiPyC2_relax_sc211_ortho_functionalized_CH-S_xyzmov element Ni O N C H C S
min_style       cg
print           "MinStep,CellMinStep,AtomMinStep,FinalStep,Energy,EDiff" file NiPyC2_relax_sc211_ortho_functionalized_CH-S.min.csv screen no
variable        min_eval   equal 1.00e-06
variable        prev_E     equal 50000.00
variable        iter       loop 100000
label           loop_min
min_style       cg
fix             1 all box/relax aniso 0.0 vmax 0.01
minimize        1.0e-15 1.0e-15 10000 100000
  update every 1 steps, delay 0 steps, check yes
Step Temp E_pair E_mol TotEng Press Volume
0            0     31650245    2416.1367     31652661 5.3954445e+09    1609.0819
Loop time of 0.0618338 on 1 procs for 231 steps with 124 atoms

Minimization stats:
  Stopping criterion = linesearch alpha is zero
  Energy initial, next-to-last, final =
  Force two-norm initial, final = 6.67208e+08 80.5612
  Force max component initial, final = 3.87326e+08 52.0705
  Final line search alpha, max atom move = 9.86688e-13 5.13773e-11
  Iterations, force evaluations = 231 363

unfix           1
min_style       fire
variable        tempstp    equal $(step)
variable        tempstp    equal 231
variable        CellMinStep equal 231
minimize        1.0e-15 1.0e-15 10000 100000
  Parameters for fire:
    dmax delaystep dtgrow dtshrink alpha0 alphashrink tmax tmin    integrator halfstepback
     0.1        20    1.1      0.5   0.25        0.99   10 0.02 eulerimplicit          yes
Step Temp E_pair E_mol TotEng Press
231            0    113.29397    1601.5977    1714.8917    529.23473
Loop time of 0.429026 on 1 procs for 3396 steps with 124 atoms

Minimization stats:
  Stopping criterion = energy tolerance
  Energy initial, next-to-last, final =
  Force two-norm initial, final = 60.4538 5.67219e-05
  Force max component initial, final = 18.7478 9.61261e-06
  Final line search alpha, max atom move = 0 0
  Iterations, force evaluations = 3396 3396

variable        AtomMinStep equal 231
variable        temppe     equal $(pe)
variable        temppe     equal 1689.2241862339817544
variable        min_E      equal abs(50000-1689.22418623398)
variable        prev_E     equal 1689.22418623398
next            iter
jump            SELF loop_min
min_style       cg
fix             1 all box/relax aniso 0.0 vmax 0.01
minimize        1.0e-15 1.0e-15 10000 100000
Step Temp E_pair E_mol TotEng Press Volume
3627 1.2044352e-10    82.885097    1606.3391    1689.2242   -4363.2725    1620.9658
Loop time of 0.00947149 on 1 procs for 5 steps with 124 atoms

Minimization stats:
  Stopping criterion = linesearch alpha is zero
  Energy initial, next-to-last, final =
  Force two-norm initial, final = 193.046 28.0063
  Force max component initial, final = 147.791 19.4419
  Final line search alpha, max atom move = 1.42247e-11 2.76556e-10
  Iterations, force evaluations = 5 59

unfix           1
min_style       fire
variable        tempstp    equal $(step)
variable        tempstp    equal 3632
variable        CellMinStep equal 3632
minimize        1.0e-15 1.0e-15 10000 100000
  Parameters for fire:
    dmax delaystep dtgrow dtshrink alpha0 alphashrink tmax tmin    integrator halfstepback
     0.1        20    1.1      0.5   0.25        0.99   10 0.02 eulerimplicit          yes
Step Temp E_pair E_mol TotEng Press
3632            0    87.736879    1601.1451     1688.882   -232.07429
Loop time of 0.215062 on 1 procs for 1694 steps with 124 atoms

Minimization stats:
  Stopping criterion = energy tolerance
  Energy initial, next-to-last, final =
  Force two-norm initial, final = 13.6711 5.76046e-05
  Force max component initial, final = 2.13183 1.13563e-05
  Final line search alpha, max atom move = 0 0
  Iterations, force evaluations = 1694 1694

variable        AtomMinStep equal 3632
variable        temppe     equal $(pe)
variable        temppe     equal 1688.7026463099143712
variable        min_E      equal abs(1689.22418623398-1688.70264630991)
variable        prev_E     equal 1688.70264630991
next            iter
jump            SELF loop_min
min_style       cg
fix             1 all box/relax aniso 0.0 vmax 0.01
minimize        1.0e-15 1.0e-15 10000 100000
Step Temp E_pair E_mol TotEng Press Volume
5326 1.4823197e-10    85.340698    1603.3619    1688.7026   -1983.5119    1613.8076
Loop time of 0.00806607 on 1 procs for 2 steps with 124 atoms

Minimization stats:
  Stopping criterion = linesearch alpha is zero
  Energy initial, next-to-last, final =
  Force two-norm initial, final = 111.719 26.2364
  Force max component initial, final = 96.6152 20.4258
  Final line search alpha, max atom move = 1.30439e-11 2.66433e-10
  Iterations, force evaluations = 2 53

unfix           1
min_style       fire
variable        tempstp    equal $(step)
variable        tempstp    equal 5328
variable        CellMinStep equal 5328
minimize        1.0e-15 1.0e-15 10000 100000
  Parameters for fire:
    dmax delaystep dtgrow dtshrink alpha0 alphashrink tmax tmin    integrator halfstepback
     0.1        20    1.1      0.5   0.25        0.99   10 0.02 eulerimplicit          yes
Step Temp E_pair E_mol TotEng Press
5328            0    87.100176    1601.5476    1688.6478   -1.6185237
Loop time of 0.165217 on 1 procs for 1310 steps with 124 atoms

Minimization stats:
  Stopping criterion = energy tolerance
  Energy initial, next-to-last, final =
  Force two-norm initial, final = 7.9027 3.84354e-05
  Force max component initial, final = 1.6215 9.51142e-06
  Final line search alpha, max atom move = 0 0
  Iterations, force evaluations = 1310 1310

variable        AtomMinStep equal 5328
variable        temppe     equal $(pe)
variable        temppe     equal 1688.6079049110223878
variable        min_E      equal abs(1688.70264630991-1688.60790491102)
variable        prev_E     equal 1688.60790491102
next            iter
jump            SELF loop_min
min_style       cg
fix             1 all box/relax aniso 0.0 vmax 0.01
minimize        1.0e-15 1.0e-15 10000 100000
Step Temp E_pair E_mol TotEng Press Volume
6638 8.9276541e-11    86.238973    1602.3689    1688.6079   -1321.5227     1611.673
Loop time of 0.00813021 on 1 procs for 3 steps with 124 atoms

Minimization stats:
  Stopping criterion = linesearch alpha is zero
  Energy initial, next-to-last, final =
  Force two-norm initial, final = 89.3342 9.99129
  Force max component initial, final = 76.1599 6.79299
  Final line search alpha, max atom move = 1.03422e-10 7.02546e-10
  Iterations, force evaluations = 3 53

unfix           1
min_style       fire
variable        tempstp    equal $(step)
variable        tempstp    equal 6641
variable        CellMinStep equal 6641
minimize        1.0e-15 1.0e-15 10000 100000
  Parameters for fire:
    dmax delaystep dtgrow dtshrink alpha0 alphashrink tmax tmin    integrator halfstepback
     0.1        20    1.1      0.5   0.25        0.99   10 0.02 eulerimplicit          yes
Step Temp E_pair E_mol TotEng Press
6641            0    87.498478    1601.0694    1688.5678    -152.1947
Loop time of 0.172222 on 1 procs for 1329 steps with 124 atoms

Minimization stats:
  Stopping criterion = energy tolerance
  Energy initial, next-to-last, final =
  Force two-norm initial, final = 6.7492 6.25996e-05
  Force max component initial, final = 1.18573 1.07709e-05
  Final line search alpha, max atom move = 0 0
  Iterations, force evaluations = 1329 1329

variable        AtomMinStep equal 6641
variable        temppe     equal $(pe)
variable        temppe     equal 1688.5519217938499423
variable        min_E      equal abs(1688.60790491102-1688.55192179385)
variable        prev_E     equal 1688.55192179385
next            iter
jump            SELF loop_min
min_style       cg
fix             1 all box/relax aniso 0.0 vmax 0.01
minimize        1.0e-15 1.0e-15 10000 100000
Step Temp E_pair E_mol TotEng Press Volume
7970 1.3654991e-10    86.910103    1601.6418    1688.5519   -852.05686    1610.0932
Loop time of 0.008137 on 1 procs for 2 steps with 124 atoms

Minimization stats:
  Stopping criterion = linesearch alpha is zero
  Energy initial, next-to-last, final =
  Force two-norm initial, final = 74.1928 15.2781
  Force max component initial, final = 61.0979 11.8066
  Final line search alpha, max atom move = 4.6458e-11 5.48511e-10
  Iterations, force evaluations = 2 51

unfix           1
min_style       fire
variable        tempstp    equal $(step)
variable        tempstp    equal 7972
variable        CellMinStep equal 7972
minimize        1.0e-15 1.0e-15 10000 100000
  Parameters for fire:
    dmax delaystep dtgrow dtshrink alpha0 alphashrink tmax tmin    integrator halfstepback
     0.1        20    1.1      0.5   0.25        0.99   10 0.02 eulerimplicit          yes
Step Temp E_pair E_mol TotEng Press
7972            0    87.780668    1600.7668    1688.5474   -13.071283
Loop time of 0.140411 on 1 procs for 1103 steps with 124 atoms

Minimization stats:
  Stopping criterion = energy tolerance
  Energy initial, next-to-last, final =
  Force two-norm initial, final = 5.50468 5.08084e-05
  Force max component initial, final = 1.02865 8.74513e-06
  Final line search alpha, max atom move = 0 0
  Iterations, force evaluations = 1103 1103

variable        AtomMinStep equal 7972
variable        temppe     equal $(pe)
variable        temppe     equal 1688.5400296844861714
variable        min_E      equal abs(1688.55192179385-1688.54002968449)
variable        prev_E     equal 1688.54002968449
next            iter
jump            SELF loop_min
min_style       cg
fix             1 all box/relax aniso 0.0 vmax 0.01
minimize        1.0e-15 1.0e-15 10000 100000
Step Temp E_pair E_mol TotEng Press Volume
9075 1.3439396e-10    87.387495    1601.1525      1688.54   -597.65034    1609.1629
Loop time of 0.00819992 on 1 procs for 1 steps with 124 atoms

Minimization stats:
  Stopping criterion = linesearch alpha is zero
  Energy initial, next-to-last, final =
  Force two-norm initial, final = 63.729 63.729
  Force max component initial, final = 49.7285 49.7285
  Final line search alpha, max atom move = 2.9965e-12 1.49012e-10
  Iterations, force evaluations = 1 53

unfix           1
min_style       fire
variable        tempstp    equal $(step)
variable        tempstp    equal 9076
variable        CellMinStep equal 9076
minimize        1.0e-15 1.0e-15 10000 100000
  Parameters for fire:
    dmax delaystep dtgrow dtshrink alpha0 alphashrink tmax tmin    integrator halfstepback
     0.1        20    1.1      0.5   0.25        0.99   10 0.02 eulerimplicit          yes
Step Temp E_pair E_mol TotEng Press
9076            0    87.387495    1601.1525      1688.54   -597.65034
Loop time of 0.00746203 on 1 procs for 56 steps with 124 atoms

Minimization stats:
  Stopping criterion = energy tolerance
  Energy initial, next-to-last, final =
  Force two-norm initial, final = 5.08084e-05 4.24686e-05
  Force max component initial, final = 8.74513e-06 6.95103e-06
  Final line search alpha, max atom move = 0 0
  Iterations, force evaluations = 56 56

variable        AtomMinStep equal 9076
variable        temppe     equal $(pe)
variable        temppe     equal 1688.54002968435816
variable        min_E      equal abs(1688.54002968449-1688.54002968436)
jump SELF break_min
undump          NiPyC2_relax_sc211_ortho_functionalized_CH-S_xyzmov

# Dump last snapshot for restart
variable curr_lx equal lx
variable curr_ly equal ly
variable curr_lz equal lz
change_box all x final 0 14.9192411882772 y final 0 10.2064230005898 z final 0 10.5676814633792
  triclinic box = (0 1.15849 -0.146701) to (14.9192 11.3649 10.421) with tilt (0 -0.234093 0)
  triclinic box = (0 0 -0.146701) to (14.9192 10.2064 10.421) with tilt (0 -0.234093 0)
  triclinic box = (0 0 0) to (14.9192 10.2064 10.5677) with tilt (0 -0.234093 0)

reset_timestep 0
dump            NiPyC2_relax_sc211_ortho_functionalized_CH-S_restart all atom 1 NiPyC2_relax_sc211_ortho_functionalized_CH-S_restart.lammpstrj
dump_modify     NiPyC2_relax_sc211_ortho_functionalized_CH-S_restart scale no sort id
run 0
Step Temp E_pair E_mol TotEng Press
0  8.84809e-11    87.387492    1601.1525      1688.54   -597.65064
Loop time of 7.92992e-07 on 1 procs for 0 steps with 124 atoms

undump          NiPyC2_relax_sc211_ortho_functionalized_CH-S_restart
