units           real
atom_style      full
boundary        p p p

pair_style      lj/cut 5.000
bond_style      harmonic
angle_style     cosine/periodic
dihedral_style  harmonic
improper_style  fourier

dielectric      1.0
special_bonds   lj/coul 0.0 0.0 1.0
pair_modify     tail yes mix arithmetic
box tilt        large
read_data       data.NiPyC2_relax_sc211_meta_functionalized_CH-S
  triclinic box = (0 0 0) to (12.5056 12.5234 10.2743) with tilt (0 -0.227594 0)
  reading atoms ...
  124 atoms
  scanning bonds ...
  scanning angles ...
  scanning dihedrals ...
  scanning impropers ...
  reading bonds ...
  144 bonds
  reading angles ...
  268 angles
  reading dihedrals ...
  288 dihedrals
  reading impropers ...
  192 impropers

#### Atom Groupings ####
group           fram     id   1:124
124 atoms in group fram
#### END Atom Groupings ####

dump            NiPyC2_relax_sc211_meta_functionalized_CH-S_xyzmov all xyz 20000 NiPyC2_relax_sc211_meta_functionalized_CH-S_mov.xyz
dump_modify     NiPyC2_relax_sc211_meta_functionalized_CH-S_xyzmov element Ni O N C H C S
min_style       cg
print           "MinStep,CellMinStep,AtomMinStep,FinalStep,Energy,EDiff" file NiPyC2_relax_sc211_meta_functionalized_CH-S.min.csv screen no
variable        min_eval   equal 1.00e-06
variable        prev_E     equal 50000.00
variable        iter       loop 100000
label           loop_min
min_style       cg
fix             1 all box/relax aniso 0.0 vmax 0.01
minimize        1.0e-15 1.0e-15 10000 100000
  update every 1 steps, delay 0 steps, check yes
Step Temp E_pair E_mol TotEng Press Volume
0            0      2205626    2409.1138    2208035.2 3.7610317e+08    1609.0819
Loop time of 0.0706083 on 1 procs for 243 steps with 124 atoms

Minimization stats:
  Stopping criterion = linesearch alpha is zero
  Energy initial, next-to-last, final =
  Force two-norm initial, final = 4.03523e+07 90.563
  Force max component initial, final = 2.17234e+07 56.283
  Final line search alpha, max atom move = 1.46198e-12 8.22844e-11
  Iterations, force evaluations = 243 411

unfix           1
min_style       fire
variable        tempstp    equal $(step)
variable        tempstp    equal 243
variable        CellMinStep equal 243
minimize        1.0e-15 1.0e-15 10000 100000
  Parameters for fire:
    dmax delaystep dtgrow dtshrink alpha0 alphashrink tmax tmin    integrator halfstepback
     0.1        20    1.1      0.5   0.25        0.99   10 0.02 eulerimplicit          yes
Step Temp E_pair E_mol TotEng Press
243            0    69.269486    1527.1369    1596.4064   -62.599537
Loop time of 0.990225 on 1 procs for 7776 steps with 124 atoms

Minimization stats:
  Stopping criterion = energy tolerance
  Energy initial, next-to-last, final =
  Force two-norm initial, final = 53.8933 5.15472e-05
  Force max component initial, final = 10.7503 2.12902e-05
  Final line search alpha, max atom move = 0 0
  Iterations, force evaluations = 7776 7776

variable        AtomMinStep equal 243
variable        temppe     equal $(pe)
variable        temppe     equal 1563.5970608500140315
variable        min_E      equal abs(50000-1563.59706085001)
variable        prev_E     equal 1563.59706085001
next            iter
jump            SELF loop_min
min_style       cg
fix             1 all box/relax aniso 0.0 vmax 0.01
minimize        1.0e-15 1.0e-15 10000 100000
Step Temp E_pair E_mol TotEng Press Volume
8019 2.2372127e-10    48.638245    1514.9588    1563.5971   -7894.5942    1587.9597
Loop time of 0.0132016 on 1 procs for 16 steps with 124 atoms

Minimization stats:
  Stopping criterion = linesearch alpha is zero
  Energy initial, next-to-last, final =
  Force two-norm initial, final = 349.944 27.4284
  Force max component initial, final = 303.843 10.947
  Final line search alpha, max atom move = 1.25755e-11 1.37663e-10
  Iterations, force evaluations = 16 83

unfix           1
min_style       fire
variable        tempstp    equal $(step)
variable        tempstp    equal 8035
variable        CellMinStep equal 8035
minimize        1.0e-15 1.0e-15 10000 100000
  Parameters for fire:
    dmax delaystep dtgrow dtshrink alpha0 alphashrink tmax tmin    integrator halfstepback
     0.1        20    1.1      0.5   0.25        0.99   10 0.02 eulerimplicit          yes
Step Temp E_pair E_mol TotEng Press
8035            0    57.665829    1503.7837    1561.4496    150.81148
Loop time of 0.527042 on 1 procs for 4138 steps with 124 atoms

Minimization stats:
  Stopping criterion = energy tolerance
  Energy initial, next-to-last, final =
  Force two-norm initial, final = 24.8201 4.87352e-05
  Force max component initial, final = 4.12995 1.60058e-05
  Final line search alpha, max atom move = 0 0
  Iterations, force evaluations = 4138 4138

variable        AtomMinStep equal 8035
variable        temppe     equal $(pe)
variable        temppe     equal 1560.8186671372359342
variable        min_E      equal abs(1563.59706085001-1560.81866713724)
variable        prev_E     equal 1560.81866713724
next            iter
jump            SELF loop_min
min_style       cg
fix             1 all box/relax aniso 0.0 vmax 0.01
minimize        1.0e-15 1.0e-15 10000 100000
Step Temp E_pair E_mol TotEng Press Volume
12173 2.1961165e-10    54.567223    1506.2514    1560.8187    -770.8546    1564.6505
Loop time of 0.00878882 on 1 procs for 3 steps with 124 atoms

Minimization stats:
  Stopping criterion = linesearch alpha is zero
  Energy initial, next-to-last, final =
  Force two-norm initial, final = 159.716 19.0315
  Force max component initial, final = 145.428 12.6098
  Final line search alpha, max atom move = 3.14489e-11 3.96563e-10
  Iterations, force evaluations = 3 55

unfix           1
min_style       fire
variable        tempstp    equal $(step)
variable        tempstp    equal 12176
variable        CellMinStep equal 12176
minimize        1.0e-15 1.0e-15 10000 100000
  Parameters for fire:
    dmax delaystep dtgrow dtshrink alpha0 alphashrink tmax tmin    integrator halfstepback
     0.1        20    1.1      0.5   0.25        0.99   10 0.02 eulerimplicit          yes
Step Temp E_pair E_mol TotEng Press
12176            0    54.470753    1506.2767    1560.7474   -293.91168
Loop time of 0.477524 on 1 procs for 3743 steps with 124 atoms

Minimization stats:
  Stopping criterion = energy tolerance
  Energy initial, next-to-last, final =
  Force two-norm initial, final = 13.0784 5.82601e-05
  Force max component initial, final = 2.22418 1.84503e-05
  Final line search alpha, max atom move = 0 0
  Iterations, force evaluations = 3743 3743

variable        AtomMinStep equal 12176
variable        temppe     equal $(pe)
variable        temppe     equal 1560.6239986277055323
variable        min_E      equal abs(1560.81866713724-1560.62399862771)
variable        prev_E     equal 1560.62399862771
next            iter
jump            SELF loop_min
min_style       cg
fix             1 all box/relax aniso 0.0 vmax 0.01
minimize        1.0e-15 1.0e-15 10000 100000
Step Temp E_pair E_mol TotEng Press Volume
15919 2.6093863e-10    54.319106    1506.3049     1560.624   -1155.4098    1564.8473
Loop time of 0.00854147 on 1 procs for 3 steps with 124 atoms

Minimization stats:
  Stopping criterion = linesearch alpha is zero
  Energy initial, next-to-last, final =
  Force two-norm initial, final = 150.547 17.8958
  Force max component initial, final = 143.496 11.8908
  Final line search alpha, max atom move = 3.31667e-11 3.94379e-10
  Iterations, force evaluations = 3 55

unfix           1
min_style       fire
variable        tempstp    equal $(step)
variable        tempstp    equal 15922
variable        CellMinStep equal 15922
minimize        1.0e-15 1.0e-15 10000 100000
  Parameters for fire:
    dmax delaystep dtgrow dtshrink alpha0 alphashrink tmax tmin    integrator halfstepback
     0.1        20    1.1      0.5   0.25        0.99   10 0.02 eulerimplicit          yes
Step Temp E_pair E_mol TotEng Press
15922            0    54.487499    1506.0365     1560.524   -270.09673
Loop time of 0.515205 on 1 procs for 4034 steps with 124 atoms

Minimization stats:
  Stopping criterion = energy tolerance
  Energy initial, next-to-last, final =
  Force two-norm initial, final = 12.5277 5.14643e-05
  Force max component initial, final = 2.20343 1.59902e-05
  Final line search alpha, max atom move = 0 0
  Iterations, force evaluations = 4034 4034

variable        AtomMinStep equal 15922
variable        temppe     equal $(pe)
variable        temppe     equal 1560.5849314707679696
variable        min_E      equal abs(1560.62399862771-1560.58493147077)
variable        prev_E     equal 1560.58493147077
next            iter
jump            SELF loop_min
min_style       cg
fix             1 all box/relax aniso 0.0 vmax 0.01
minimize        1.0e-15 1.0e-15 10000 100000
Step Temp E_pair E_mol TotEng Press Volume
19956 1.5121048e-10    54.373214    1506.2117    1560.5849   -1322.5518    1564.5865
Loop time of 0.00874458 on 1 procs for 3 steps with 124 atoms

Minimization stats:
  Stopping criterion = linesearch alpha is zero
  Energy initial, next-to-last, final =
  Force two-norm initial, final = 143.428 17.0191
  Force max component initial, final = 139.176 11.1553
  Final line search alpha, max atom move = 3.42381e-11 3.81935e-10
  Iterations, force evaluations = 3 55

unfix           1
min_style       fire
variable        tempstp    equal $(step)
variable        tempstp    equal 19959
variable        CellMinStep equal 19959
minimize        1.0e-15 1.0e-15 10000 100000
  Parameters for fire:
    dmax delaystep dtgrow dtshrink alpha0 alphashrink tmax tmin    integrator halfstepback
     0.1        20    1.1      0.5   0.25        0.99   10 0.02 eulerimplicit          yes
Step Temp E_pair E_mol TotEng Press
19959            0    54.673435    1505.8044    1560.4778   -253.81004
Loop time of 0.509725 on 1 procs for 3942 steps with 124 atoms

Minimization stats:
  Stopping criterion = energy tolerance
  Energy initial, next-to-last, final =
  Force two-norm initial, final = 12.0663 4.37006e-05
  Force max component initial, final = 2.15182 1.27082e-05
  Final line search alpha, max atom move = 0 0
  Iterations, force evaluations = 3942 3942

variable        AtomMinStep equal 19959
variable        temppe     equal $(pe)
variable        temppe     equal 1560.3853362745751383
variable        min_E      equal abs(1560.58493147077-1560.38533627458)
variable        prev_E     equal 1560.38533627458
next            iter
jump            SELF loop_min
min_style       cg
fix             1 all box/relax aniso 0.0 vmax 0.01
minimize        1.0e-15 1.0e-15 10000 100000
Step Temp E_pair E_mol TotEng Press Volume
23901 1.164048e-10    54.325661    1506.0597    1560.3853   -1405.0527     1564.113
Loop time of 0.00846429 on 1 procs for 3 steps with 124 atoms

Minimization stats:
  Stopping criterion = linesearch alpha is zero
  Energy initial, next-to-last, final =
  Force two-norm initial, final = 136.031 16.1534
  Force max component initial, final = 133.208 10.2763
  Final line search alpha, max atom move = 3.57231e-11 3.671e-10
  Iterations, force evaluations = 3 55

unfix           1
min_style       fire
variable        tempstp    equal $(step)
variable        tempstp    equal 23904
variable        CellMinStep equal 23904
minimize        1.0e-15 1.0e-15 10000 100000
  Parameters for fire:
    dmax delaystep dtgrow dtshrink alpha0 alphashrink tmax tmin    integrator halfstepback
     0.1        20    1.1      0.5   0.25        0.99   10 0.02 eulerimplicit          yes
Step Temp E_pair E_mol TotEng Press
23904            0    54.613166    1505.5696    1560.1827   -243.98593
Loop time of 0.474701 on 1 procs for 3705 steps with 124 atoms

Minimization stats:
  Stopping criterion = energy tolerance
  Energy initial, next-to-last, final =
  Force two-norm initial, final = 11.5653 4.8306e-05
  Force max component initial, final = 2.07629 1.38389e-05
  Final line search alpha, max atom move = 0 0
  Iterations, force evaluations = 3705 3705

variable        AtomMinStep equal 23904
variable        temppe     equal $(pe)
variable        temppe     equal 1560.0632138660253077
variable        min_E      equal abs(1560.38533627458-1560.06321386603)
variable        prev_E     equal 1560.06321386603
next            iter
jump            SELF loop_min
min_style       cg
fix             1 all box/relax aniso 0.0 vmax 0.01
minimize        1.0e-15 1.0e-15 10000 100000
Step Temp E_pair E_mol TotEng Press Volume
27609 1.5767911e-10    54.179869    1505.8833    1560.0632   -1439.7022     1563.516
Loop time of 0.00856297 on 1 procs for 3 steps with 124 atoms

Minimization stats:
  Stopping criterion = linesearch alpha is zero
  Energy initial, next-to-last, final =
  Force two-norm initial, final = 130.067 15.2973
  Force max component initial, final = 127.844 9.52635
  Final line search alpha, max atom move = 3.67609e-11 3.50197e-10
  Iterations, force evaluations = 3 55

unfix           1
min_style       fire
variable        tempstp    equal $(step)
variable        tempstp    equal 27612
variable        CellMinStep equal 27612
minimize        1.0e-15 1.0e-15 10000 100000
  Parameters for fire:
    dmax delaystep dtgrow dtshrink alpha0 alphashrink tmax tmin    integrator halfstepback
     0.1        20    1.1      0.5   0.25        0.99   10 0.02 eulerimplicit          yes
Step Temp E_pair E_mol TotEng Press
27612            0    54.653056      1505.35    1560.0031   -221.39765
Loop time of 0.489038 on 1 procs for 3749 steps with 124 atoms

Minimization stats:
  Stopping criterion = energy tolerance
  Energy initial, next-to-last, final =
  Force two-norm initial, final = 11.1582 4.58023e-05
  Force max component initial, final = 2.01238 1.24019e-05
  Final line search alpha, max atom move = 0 0
  Iterations, force evaluations = 3749 3749

variable        AtomMinStep equal 27612
variable        temppe     equal $(pe)
variable        temppe     equal 1559.9279128724379007
variable        min_E      equal abs(1560.06321386603-1559.92791287244)
variable        prev_E     equal 1559.92791287244
next            iter
jump            SELF loop_min
min_style       cg
fix             1 all box/relax aniso 0.0 vmax 0.01
minimize        1.0e-15 1.0e-15 10000 100000
Step Temp E_pair E_mol TotEng Press Volume
31361 1.084046e-10    54.271307    1505.6566    1559.9279   -1404.2994    1562.8573
Loop time of 0.00866593 on 1 procs for 3 steps with 124 atoms

Minimization stats:
  Stopping criterion = linesearch alpha is zero
  Energy initial, next-to-last, final =
  Force two-norm initial, final = 123.298 14.433
  Force max component initial, final = 121.11 8.70567
  Final line search alpha, max atom move = 3.85194e-11 3.35337e-10
  Iterations, force evaluations = 3 55

unfix           1
min_style       fire
variable        tempstp    equal $(step)
variable        tempstp    equal 31364
variable        CellMinStep equal 31364
minimize        1.0e-15 1.0e-15 10000 100000
  Parameters for fire:
    dmax delaystep dtgrow dtshrink alpha0 alphashrink tmax tmin    integrator halfstepback
     0.1        20    1.1      0.5   0.25        0.99   10 0.02 eulerimplicit          yes
Step Temp E_pair E_mol TotEng Press
31364            0     54.73587    1505.1239    1559.8598   -206.05062
Loop time of 0.496578 on 1 procs for 3875 steps with 124 atoms

Minimization stats:
  Stopping criterion = energy tolerance
  Energy initial, next-to-last, final =
  Force two-norm initial, final = 10.6943 5.02182e-05
  Force max component initial, final = 1.93486 1.28145e-05
  Final line search alpha, max atom move = 0 0
  Iterations, force evaluations = 3875 3875

variable        AtomMinStep equal 31364
variable        temppe     equal $(pe)
variable        temppe     equal 1559.7727709646078438
variable        min_E      equal abs(1559.92791287244-1559.77277096461)
variable        prev_E     equal 1559.77277096461
next            iter
jump            SELF loop_min
min_style       cg
fix             1 all box/relax aniso 0.0 vmax 0.01
minimize        1.0e-15 1.0e-15 10000 100000
Step Temp E_pair E_mol TotEng Press Volume
35239 1.6595409e-10    54.336022    1505.4367    1559.7728   -1358.3138    1562.2048
Loop time of 0.00816136 on 1 procs for 2 steps with 124 atoms

Minimization stats:
  Stopping criterion = linesearch alpha is zero
  Energy initial, next-to-last, final =
  Force two-norm initial, final = 117.456 24.3721
  Force max component initial, final = 115.015 21.8048
  Final line search alpha, max atom move = 1.30997e-11 2.85636e-10
  Iterations, force evaluations = 2 53

unfix           1
min_style       fire
variable        tempstp    equal $(step)
variable        tempstp    equal 35241
variable        CellMinStep equal 35241
minimize        1.0e-15 1.0e-15 10000 100000
  Parameters for fire:
    dmax delaystep dtgrow dtshrink alpha0 alphashrink tmax tmin    integrator halfstepback
     0.1        20    1.1      0.5   0.25        0.99   10 0.02 eulerimplicit          yes
Step Temp E_pair E_mol TotEng Press
35241            0    55.232892     1504.486    1559.7189    406.53351
Loop time of 0.469686 on 1 procs for 3657 steps with 124 atoms

Minimization stats:
  Stopping criterion = energy tolerance
  Energy initial, next-to-last, final =
  Force two-norm initial, final = 9.91686 5.6804e-05
  Force max component initial, final = 1.8468 1.37448e-05
  Final line search alpha, max atom move = 0 0
  Iterations, force evaluations = 3657 3657

variable        AtomMinStep equal 35241
variable        temppe     equal $(pe)
variable        temppe     equal 1559.7176406174637577
variable        min_E      equal abs(1559.77277096461-1559.71764061746)
variable        prev_E     equal 1559.71764061746
next            iter
jump            SELF loop_min
min_style       cg
fix             1 all box/relax aniso 0.0 vmax 0.01
minimize        1.0e-15 1.0e-15 10000 100000
Step Temp E_pair E_mol TotEng Press Volume
38898 2.4808399e-10    54.725822    1504.9918    1559.7176   -1006.4524    1560.8185
Loop time of 0.00809183 on 1 procs for 2 steps with 124 atoms

Minimization stats:
  Stopping criterion = linesearch alpha is zero
  Energy initial, next-to-last, final =
  Force two-norm initial, final = 109.328 25.9385
  Force max component initial, final = 104.666 23.2303
  Final line search alpha, max atom move = 1.19801e-11 2.78302e-10
  Iterations, force evaluations = 2 53

unfix           1
min_style       fire
variable        tempstp    equal $(step)
variable        tempstp    equal 38900
variable        CellMinStep equal 38900
minimize        1.0e-15 1.0e-15 10000 100000
  Parameters for fire:
    dmax delaystep dtgrow dtshrink alpha0 alphashrink tmax tmin    integrator halfstepback
     0.1        20    1.1      0.5   0.25        0.99   10 0.02 eulerimplicit          yes
Step Temp E_pair E_mol TotEng Press
38900            0    55.360905    1504.2496    1559.6105    450.43528
Loop time of 0.527104 on 1 procs for 4062 steps with 124 atoms

Minimization stats:
  Stopping criterion = energy tolerance
  Energy initial, next-to-last, final =
  Force two-norm initial, final = 9.44297 4.80158e-05
  Force max component initial, final = 1.74406 1.07627e-05
  Final line search alpha, max atom move = 0 0
  Iterations, force evaluations = 4062 4062

variable        AtomMinStep equal 38900
variable        temppe     equal $(pe)
variable        temppe     equal 1559.5334363796268917
variable        min_E      equal abs(1559.71764061746-1559.53343637963)
variable        prev_E     equal 1559.53343637963
next            iter
jump            SELF loop_min
min_style       cg
fix             1 all box/relax aniso 0.0 vmax 0.01
minimize        1.0e-15 1.0e-15 10000 100000
Step Temp E_pair E_mol TotEng Press Volume
42962 1.4493257e-10    54.857456     1504.676    1559.5334   -799.38184    1559.7521
Loop time of 0.00861401 on 1 procs for 3 steps with 124 atoms

Minimization stats:
  Stopping criterion = linesearch alpha is zero
  Energy initial, next-to-last, final =
  Force two-norm initial, final = 103.68 12.7682
  Force max component initial, final = 96.9799 7.64487
  Final line search alpha, max atom move = 3.93124e-11 3.00538e-10
  Iterations, force evaluations = 3 55

unfix           1
min_style       fire
variable        tempstp    equal $(step)
variable        tempstp    equal 42965
variable        CellMinStep equal 42965
minimize        1.0e-15 1.0e-15 10000 100000
  Parameters for fire:
    dmax delaystep dtgrow dtshrink alpha0 alphashrink tmax tmin    integrator halfstepback
     0.1        20    1.1      0.5   0.25        0.99   10 0.02 eulerimplicit          yes
Step Temp E_pair E_mol TotEng Press
42965            0    54.914754    1504.5204    1559.4352   -187.45732
Loop time of 0.627018 on 1 procs for 4864 steps with 124 atoms

Minimization stats:
  Stopping criterion = energy tolerance
  Energy initial, next-to-last, final =
  Force two-norm initial, final = 9.51818 5.81533e-05
  Force max component initial, final = 1.64496 1.68159e-05
  Final line search alpha, max atom move = 0 0
  Iterations, force evaluations = 4864 4864

variable        AtomMinStep equal 42965
variable        temppe     equal $(pe)
variable        temppe     equal 1559.3633467227693927
variable        min_E      equal abs(1559.53343637963-1559.36334672277)
variable        prev_E     equal 1559.36334672277
next            iter
jump            SELF loop_min
min_style       cg
fix             1 all box/relax aniso 0.0 vmax 0.01
minimize        1.0e-15 1.0e-15 10000 100000
Step Temp E_pair E_mol TotEng Press Volume
47829 2.4891466e-10    54.722999    1504.6403    1559.3633   -953.56228    1559.7086
Loop time of 0.00867599 on 1 procs for 3 steps with 124 atoms

Minimization stats:
  Stopping criterion = linesearch alpha is zero
  Energy initial, next-to-last, final =
  Force two-norm initial, final = 100.914 12.0397
  Force max component initial, final = 95.2872 6.58147
  Final line search alpha, max atom move = 4.44903e-11 2.92811e-10
  Iterations, force evaluations = 3 55

unfix           1
min_style       fire
variable        tempstp    equal $(step)
variable        tempstp    equal 47832
variable        CellMinStep equal 47832
minimize        1.0e-15 1.0e-15 10000 100000
  Parameters for fire:
    dmax delaystep dtgrow dtshrink alpha0 alphashrink tmax tmin    integrator halfstepback
     0.1        20    1.1      0.5   0.25        0.99   10 0.02 eulerimplicit          yes
Step Temp E_pair E_mol TotEng Press
47832            0    54.921538     1504.354    1559.2756   -166.01649
Loop time of 1.25983 on 1 procs for 9025 steps with 124 atoms

Minimization stats:
  Stopping criterion = energy tolerance
  Energy initial, next-to-last, final =
  Force two-norm initial, final = 9.39618 6.22332e-05
  Force max component initial, final = 1.64235 1.81458e-05
  Final line search alpha, max atom move = 0 0
  Iterations, force evaluations = 9025 9025

variable        AtomMinStep equal 47832
variable        temppe     equal $(pe)
variable        temppe     equal 1555.8225706159078072
variable        min_E      equal abs(1559.36334672277-1555.82257061591)
variable        prev_E     equal 1555.82257061591
next            iter
jump            SELF loop_min
min_style       cg
fix             1 all box/relax aniso 0.0 vmax 0.01
minimize        1.0e-15 1.0e-15 10000 100000
Step Temp E_pair E_mol TotEng Press Volume
56857 2.9291645e-10    54.441366    1501.3812    1555.8226   -3478.7509    1559.4776
Loop time of 0.0178359 on 1 procs for 5 steps with 124 atoms

Minimization stats:
  Stopping criterion = linesearch alpha is zero
  Energy initial, next-to-last, final =
  Force two-norm initial, final = 194.001 35.6828
  Force max component initial, final = 173.595 22.7568
  Final line search alpha, max atom move = 8.5566e-12 1.94721e-10
  Iterations, force evaluations = 5 61

unfix           1
min_style       fire
variable        tempstp    equal $(step)
variable        tempstp    equal 56862
variable        CellMinStep equal 56862
minimize        1.0e-15 1.0e-15 10000 100000
  Parameters for fire:
    dmax delaystep dtgrow dtshrink alpha0 alphashrink tmax tmin    integrator halfstepback
     0.1        20    1.1      0.5   0.25        0.99   10 0.02 eulerimplicit          yes
Step Temp E_pair E_mol TotEng Press
56862            0    56.447488    1498.6688    1555.1163   -673.91122
Loop time of 0.457906 on 1 procs for 3548 steps with 124 atoms

Minimization stats:
  Stopping criterion = energy tolerance
  Energy initial, next-to-last, final =
  Force two-norm initial, final = 21.9086 4.46063e-05
  Force max component initial, final = 5.0763 1.27192e-05
  Final line search alpha, max atom move = 0 0
  Iterations, force evaluations = 3548 3548

variable        AtomMinStep equal 56862
variable        temppe     equal $(pe)
variable        temppe     equal 1554.9778657824383572
variable        min_E      equal abs(1555.82257061591-1554.97786578244)
variable        prev_E     equal 1554.97786578244
next            iter
jump            SELF loop_min
min_style       cg
fix             1 all box/relax aniso 0.0 vmax 0.01
minimize        1.0e-15 1.0e-15 10000 100000
Step Temp E_pair E_mol TotEng Press Volume
60410 1.5001842e-10    55.032891     1499.945    1554.9779   -2470.9125    1555.8903
Loop time of 0.00911684 on 1 procs for 5 steps with 124 atoms

Minimization stats:
  Stopping criterion = linesearch alpha is zero
  Energy initial, next-to-last, final =
  Force two-norm initial, final = 161.405 32.2281
  Force max component initial, final = 147.151 20.3923
  Final line search alpha, max atom move = 1.1641e-11 2.37387e-10
  Iterations, force evaluations = 5 59

unfix           1
min_style       fire
variable        tempstp    equal $(step)
variable        tempstp    equal 60415
variable        CellMinStep equal 60415
minimize        1.0e-15 1.0e-15 10000 100000
  Parameters for fire:
    dmax delaystep dtgrow dtshrink alpha0 alphashrink tmax tmin    integrator halfstepback
     0.1        20    1.1      0.5   0.25        0.99   10 0.02 eulerimplicit          yes
Step Temp E_pair E_mol TotEng Press
60415            0    56.529579    1498.1011    1554.6307   -548.20232
Loop time of 0.465213 on 1 procs for 3629 steps with 124 atoms

Minimization stats:
  Stopping criterion = energy tolerance
  Energy initial, next-to-last, final =
  Force two-norm initial, final = 20.2345 4.15518e-05
  Force max component initial, final = 4.97523 1.30404e-05
  Final line search alpha, max atom move = 0 0
  Iterations, force evaluations = 3629 3629

variable        AtomMinStep equal 60415
variable        temppe     equal $(pe)
variable        temppe     equal 1554.479469499106699
variable        min_E      equal abs(1554.97786578244-1554.47946949911)
variable        prev_E     equal 1554.47946949911
next            iter
jump            SELF loop_min
min_style       cg
fix             1 all box/relax aniso 0.0 vmax 0.01
minimize        1.0e-15 1.0e-15 10000 100000
Step Temp E_pair E_mol TotEng Press Volume
64044 1.2611211e-10    55.493709    1498.9858    1554.4795   -1859.5003    1553.6081
Loop time of 0.00901935 on 1 procs for 5 steps with 124 atoms

Minimization stats:
  Stopping criterion = linesearch alpha is zero
  Energy initial, next-to-last, final =
  Force two-norm initial, final = 139.731 28.6472
  Force max component initial, final = 127.602 15.1536
  Final line search alpha, max atom move = 1.40934e-11 2.13566e-10
  Iterations, force evaluations = 5 59

unfix           1
min_style       fire
variable        tempstp    equal $(step)
variable        tempstp    equal 64049
variable        CellMinStep equal 64049
minimize        1.0e-15 1.0e-15 10000 100000
  Parameters for fire:
    dmax delaystep dtgrow dtshrink alpha0 alphashrink tmax tmin    integrator halfstepback
     0.1        20    1.1      0.5   0.25        0.99   10 0.02 eulerimplicit          yes
Step Temp E_pair E_mol TotEng Press
64049            0    56.298588    1497.7491    1554.0477   -553.30322
Loop time of 0.514007 on 1 procs for 3982 steps with 124 atoms

Minimization stats:
  Stopping criterion = energy tolerance
  Energy initial, next-to-last, final =
  Force two-norm initial, final = 18.3484 5.16799e-05
  Force max component initial, final = 4.58032 1.5339e-05
  Final line search alpha, max atom move = 0 0
  Iterations, force evaluations = 3982 3982

variable        AtomMinStep equal 64049
variable        temppe     equal $(pe)
variable        temppe     equal 1554.0459333038597833
variable        min_E      equal abs(1554.47946949911-1554.04593330386)
variable        prev_E     equal 1554.04593330386
next            iter
jump            SELF loop_min
min_style       cg
fix             1 all box/relax aniso 0.0 vmax 0.01
minimize        1.0e-15 1.0e-15 10000 100000
Step Temp E_pair E_mol TotEng Press Volume
68031 1.6281422e-10    55.675349    1498.3706    1554.0459   -1556.2729    1552.1745
Loop time of 0.00857254 on 1 procs for 3 steps with 124 atoms

Minimization stats:
  Stopping criterion = linesearch alpha is zero
  Energy initial, next-to-last, final =
  Force two-norm initial, final = 124.778 13.5316
  Force max component initial, final = 113.348 4.21157
  Final line search alpha, max atom move = 6.15128e-11 2.59065e-10
  Iterations, force evaluations = 3 55

unfix           1
min_style       fire
variable        tempstp    equal $(step)
variable        tempstp    equal 68034
variable        CellMinStep equal 68034
minimize        1.0e-15 1.0e-15 10000 100000
  Parameters for fire:
    dmax delaystep dtgrow dtshrink alpha0 alphashrink tmax tmin    integrator halfstepback
     0.1        20    1.1      0.5   0.25        0.99   10 0.02 eulerimplicit          yes
Step Temp E_pair E_mol TotEng Press
68034            0    56.207487    1497.7339    1553.9414   -141.08083
Loop time of 0.379668 on 1 procs for 2932 steps with 124 atoms

Minimization stats:
  Stopping criterion = energy tolerance
  Energy initial, next-to-last, final =
  Force two-norm initial, final = 12.126 4.66534e-05
  Force max component initial, final = 2.12341 1.44808e-05
  Final line search alpha, max atom move = 0 0
  Iterations, force evaluations = 2932 2932

variable        AtomMinStep equal 68034
variable        temppe     equal $(pe)
variable        temppe     equal 1553.940609258436325
variable        min_E      equal abs(1554.04593330386-1553.94060925844)
variable        prev_E     equal 1553.94060925844
next            iter
jump            SELF loop_min
min_style       cg
fix             1 all box/relax aniso 0.0 vmax 0.01
minimize        1.0e-15 1.0e-15 10000 100000
Step Temp E_pair E_mol TotEng Press Volume
70966 1.5022736e-10    55.834094    1498.1065    1553.9406   -1432.1625    1551.5079
Loop time of 0.00872491 on 1 procs for 3 steps with 124 atoms

Minimization stats:
  Stopping criterion = linesearch alpha is zero
  Energy initial, next-to-last, final =
  Force two-norm initial, final = 118.468 12.9279
  Force max component initial, final = 107.16 4.1008
  Final line search alpha, max atom move = 6.34278e-11 2.60105e-10
  Iterations, force evaluations = 3 55

unfix           1
min_style       fire
variable        tempstp    equal $(step)
variable        tempstp    equal 70969
variable        CellMinStep equal 70969
minimize        1.0e-15 1.0e-15 10000 100000
  Parameters for fire:
    dmax delaystep dtgrow dtshrink alpha0 alphashrink tmax tmin    integrator halfstepback
     0.1        20    1.1      0.5   0.25        0.99   10 0.02 eulerimplicit          yes
Step Temp E_pair E_mol TotEng Press
70969            0    56.267397     1497.538    1553.8054   -135.37962
Loop time of 0.359607 on 1 procs for 2739 steps with 124 atoms

Minimization stats:
  Stopping criterion = energy tolerance
  Energy initial, next-to-last, final =
  Force two-norm initial, final = 11.5442 7.0078e-05
  Force max component initial, final = 2.01592 2.11806e-05
  Final line search alpha, max atom move = 0 0
  Iterations, force evaluations = 2739 2739

variable        AtomMinStep equal 70969
variable        temppe     equal $(pe)
variable        temppe     equal 1553.6804265584951281
variable        min_E      equal abs(1553.94060925844-1553.6804265585)
variable        prev_E     equal 1553.6804265585
next            iter
jump            SELF loop_min
min_style       cg
fix             1 all box/relax aniso 0.0 vmax 0.01
minimize        1.0e-15 1.0e-15 10000 100000
Step Temp E_pair E_mol TotEng Press Volume
73708 2.9214693e-10    55.791094    1497.8893    1553.6804   -1348.6432    1550.9248
Loop time of 0.00880009 on 1 procs for 3 steps with 124 atoms

Minimization stats:
  Stopping criterion = linesearch alpha is zero
  Energy initial, next-to-last, final =
  Force two-norm initial, final = 112.528 12.3395
  Force max component initial, final = 101.552 3.89426
  Final line search alpha, max atom move = 6.52383e-11 2.54055e-10
  Iterations, force evaluations = 3 55

unfix           1
min_style       fire
variable        tempstp    equal $(step)
variable        tempstp    equal 73711
variable        CellMinStep equal 73711
minimize        1.0e-15 1.0e-15 10000 100000
  Parameters for fire:
    dmax delaystep dtgrow dtshrink alpha0 alphashrink tmax tmin    integrator halfstepback
     0.1        20    1.1      0.5   0.25        0.99   10 0.02 eulerimplicit          yes
Step Temp E_pair E_mol TotEng Press
73711            0    56.202845    1497.3634    1553.5663   -130.63366
Loop time of 0.354525 on 1 procs for 2728 steps with 124 atoms

Minimization stats:
  Stopping criterion = energy tolerance
  Energy initial, next-to-last, final =
  Force two-norm initial, final = 10.9922 4.84353e-05
  Force max component initial, final = 1.91592 1.52827e-05
  Final line search alpha, max atom move = 0 0
  Iterations, force evaluations = 2728 2728

variable        AtomMinStep equal 73711
variable        temppe     equal $(pe)
variable        temppe     equal 1553.487992108312028
variable        min_E      equal abs(1553.6804265585-1553.48799210831)
variable        prev_E     equal 1553.48799210831
next            iter
jump            SELF loop_min
min_style       cg
fix             1 all box/relax aniso 0.0 vmax 0.01
minimize        1.0e-15 1.0e-15 10000 100000
Step Temp E_pair E_mol TotEng Press Volume
76439 2.0147016e-10     55.78853    1497.6995     1553.488   -1270.9073    1550.3867
Loop time of 0.00936735 on 1 procs for 5 steps with 124 atoms

Minimization stats:
  Stopping criterion = linesearch alpha is zero
  Energy initial, next-to-last, final =
  Force two-norm initial, final = 106.845 20.1653
  Force max component initial, final = 96.2026 8.55577
  Final line search alpha, max atom move = 2.4779e-11 2.12003e-10
  Iterations, force evaluations = 5 59

unfix           1
min_style       fire
variable        tempstp    equal $(step)
variable        tempstp    equal 76444
variable        CellMinStep equal 76444
minimize        1.0e-15 1.0e-15 10000 100000
  Parameters for fire:
    dmax delaystep dtgrow dtshrink alpha0 alphashrink tmax tmin    integrator halfstepback
     0.1        20    1.1      0.5   0.25        0.99   10 0.02 eulerimplicit          yes
Step Temp E_pair E_mol TotEng Press
76444            0    56.459585    1496.8885     1553.348   -351.61828
Loop time of 0.384983 on 1 procs for 3011 steps with 124 atoms

Minimization stats:
  Stopping criterion = energy tolerance
  Energy initial, next-to-last, final =
  Force two-norm initial, final = 14.7107 6.33942e-05
  Force max component initial, final = 3.70891 3.84956e-05
  Final line search alpha, max atom move = 0 0
  Iterations, force evaluations = 3011 3011

variable        AtomMinStep equal 76444
variable        temppe     equal $(pe)
variable        temppe     equal 1553.2241150407592158
variable        min_E      equal abs(1553.48799210831-1553.22411504076)
variable        prev_E     equal 1553.22411504076
next            iter
jump            SELF loop_min
min_style       cg
fix             1 all box/relax aniso 0.0 vmax 0.01
minimize        1.0e-15 1.0e-15 10000 100000
Step Temp E_pair E_mol TotEng Press Volume
79455 2.0276586e-10    55.847306    1497.3768    1553.2241   -1129.5126    1549.4607
Loop time of 0.00883659 on 1 procs for 2 steps with 124 atoms

Minimization stats:
  Stopping criterion = linesearch alpha is zero
  Energy initial, next-to-last, final =
  Force two-norm initial, final = 96.5113 30.4637
  Force max component initial, final = 86.4724 26.9097
  Final line search alpha, max atom move = 9.84086e-12 2.64815e-10
  Iterations, force evaluations = 2 53

unfix           1
min_style       fire
variable        tempstp    equal $(step)
variable        tempstp    equal 79457
variable        CellMinStep equal 79457
minimize        1.0e-15 1.0e-15 10000 100000
  Parameters for fire:
    dmax delaystep dtgrow dtshrink alpha0 alphashrink tmax tmin    integrator halfstepback
     0.1        20    1.1      0.5   0.25        0.99   10 0.02 eulerimplicit          yes
Step Temp E_pair E_mol TotEng Press
79457            0    56.680635    1496.4796    1553.1602    532.48193
Loop time of 0.498203 on 1 procs for 3893 steps with 124 atoms

Minimization stats:
  Stopping criterion = energy tolerance
  Energy initial, next-to-last, final =
  Force two-norm initial, final = 8.76423 5.79303e-05
  Force max component initial, final = 1.64811 3.89686e-05
  Final line search alpha, max atom move = 0 0
  Iterations, force evaluations = 3893 3893

variable        AtomMinStep equal 79457
variable        temppe     equal $(pe)
variable        temppe     equal 1553.0514084202679896
variable        min_E      equal abs(1553.22411504076-1553.05140842027)
variable        prev_E     equal 1553.05140842027
next            iter
jump            SELF loop_min
min_style       cg
fix             1 all box/relax aniso 0.0 vmax 0.01
minimize        1.0e-15 1.0e-15 10000 100000
Loop time of 0.00869788 on 1 procs for 3 steps with 124 atoms

Minimization stats:
  Stopping criterion = linesearch alpha is zero
  Energy initial, next-to-last, final =
  Force two-norm initial, final = 89.7803 10.431
  Force max component initial, final = 78.156 4.08515
  Final line search alpha, max atom move = 6.5233e-11 2.66487e-10
  Iterations, force evaluations = 3 55

unfix           1
min_style       fire
variable        tempstp    equal $(step)
variable        tempstp    equal 83353
variable        CellMinStep equal 83353
minimize        1.0e-15 1.0e-15 10000 100000
  Parameters for fire:
    dmax delaystep dtgrow dtshrink alpha0 alphashrink tmax tmin    integrator halfstepback
     0.1        20    1.1      0.5   0.25        0.99   10 0.02 eulerimplicit          yes
Loop time of 0.46817 on 1 procs for 3650 steps with 124 atoms

Minimization stats:
  Stopping criterion = energy tolerance
  Energy initial, next-to-last, final =
  Force two-norm initial, final = 9.07584 0.00236485
  Force max component initial, final = 1.52938 0.000665441
  Final line search alpha, max atom move = 0 0
  Iterations, force evaluations = 3650 3650

variable        AtomMinStep equal 83353
variable        temppe     equal $(pe)
variable        temppe     equal 1552.9914240818773123
variable        min_E      equal abs(1553.05140842027-1552.99142408188)
variable        prev_E     equal 1552.99142408188
next            iter
jump            SELF loop_min
min_style       cg
fix             1 all box/relax aniso 0.0 vmax 0.01
minimize        1.0e-15 1.0e-15 10000 100000
Loop time of 0.00835386 on 1 procs for 2 steps with 124 atoms

Minimization stats:
  Stopping criterion = linesearch alpha is zero
  Energy initial, next-to-last, final =
  Force two-norm initial, final = 86.5593 29.3183
  Force max component initial, final = 75.9082 25.318
  Final line search alpha, max atom move = 1.014e-11 2.56723e-10
  Iterations, force evaluations = 2 53

unfix           1
min_style       fire
variable        tempstp    equal $(step)
variable        tempstp    equal 87005
variable        CellMinStep equal 87005
minimize        1.0e-15 1.0e-15 10000 100000
  Parameters for fire:
    dmax delaystep dtgrow dtshrink alpha0 alphashrink tmax tmin    integrator halfstepback
     0.1        20    1.1      0.5   0.25        0.99   10 0.02 eulerimplicit          yes
Loop time of 0.833614 on 1 procs for 6501 steps with 124 atoms

Minimization stats:
  Stopping criterion = energy tolerance
  Energy initial, next-to-last, final =
  Force two-norm initial, final = 8.0774 0.000127942
  Force max component initial, final = 1.51308 8.48712e-05
  Final line search alpha, max atom move = 0 0
  Iterations, force evaluations = 6501 6501

variable        AtomMinStep equal 87005
variable        temppe     equal $(pe)
variable        temppe     equal 1552.850814848922937
variable        min_E      equal abs(1552.99142408188-1552.85081484892)
variable        prev_E     equal 1552.85081484892
next            iter
jump            SELF loop_min
min_style       cg
fix             1 all box/relax aniso 0.0 vmax 0.01
minimize        1.0e-15 1.0e-15 10000 100000
Loop time of 0.00907495 on 1 procs for 5 steps with 124 atoms

Minimization stats:
  Stopping criterion = linesearch alpha is zero
  Energy initial, next-to-last, final =
  Force two-norm initial, final = 82.1106 15.84
  Force max component initial, final = 70.0142 8.74829
  Final line search alpha, max atom move = 3.38969e-11 2.9654e-10
  Iterations, force evaluations = 5 59

unfix           1
min_style       fire
variable        tempstp    equal $(step)
variable        tempstp    equal 93511
variable        CellMinStep equal 93511
minimize        1.0e-15 1.0e-15 10000 100000
  Parameters for fire:
    dmax delaystep dtgrow dtshrink alpha0 alphashrink tmax tmin    integrator halfstepback
     0.1        20    1.1      0.5   0.25        0.99   10 0.02 eulerimplicit          yes
Loop time of 1.15008 on 1 procs for 8972 steps with 124 atoms

Minimization stats:
  Stopping criterion = energy tolerance
  Energy initial, next-to-last, final =
  Force two-norm initial, final = 12.2071 3.83582e-05
  Force max component initial, final = 3.09959 8.1729e-06
  Final line search alpha, max atom move = 0 0
  Iterations, force evaluations = 8972 8972

variable        AtomMinStep equal 93511
variable        temppe     equal $(pe)
variable        temppe     equal 1550.2381851613165509
variable        min_E      equal abs(1552.85081484892-1550.23818516132)
variable        prev_E     equal 1550.23818516132
next            iter
jump            SELF loop_min
min_style       cg
fix             1 all box/relax aniso 0.0 vmax 0.01
minimize        1.0e-15 1.0e-15 10000 100000
Loop time of 0.0096444 on 1 procs for 4 steps with 124 atoms

Minimization stats:
  Stopping criterion = linesearch alpha is zero
  Energy initial, next-to-last, final =
  Force two-norm initial, final = 121.217 49.4373
  Force max component initial, final = 113.791 48.2521
  Final line search alpha, max atom move = 4.28691e-12 2.06852e-10
  Iterations, force evaluations = 4 63

unfix           1
min_style       fire
variable        tempstp    equal $(step)
variable        tempstp    equal 102487
variable        CellMinStep equal 102487
minimize        1.0e-15 1.0e-15 10000 100000
  Parameters for fire:
    dmax delaystep dtgrow dtshrink alpha0 alphashrink tmax tmin    integrator halfstepback
     0.1        20    1.1      0.5   0.25        0.99   10 0.02 eulerimplicit          yes
Loop time of 0.403199 on 1 procs for 3118 steps with 124 atoms

Minimization stats:
  Stopping criterion = energy tolerance
  Energy initial, next-to-last, final =
  Force two-norm initial, final = 10.1827 4.84272e-05
  Force max component initial, final = 1.56927 9.9588e-06
  Final line search alpha, max atom move = 0 0
  Iterations, force evaluations = 3118 3118

variable        AtomMinStep equal 102487
variable        temppe     equal $(pe)
variable        temppe     equal 1550.0915679565021037
variable        min_E      equal abs(1550.23818516132-1550.0915679565)
variable        prev_E     equal 1550.0915679565
next            iter
jump            SELF loop_min
min_style       cg
fix             1 all box/relax aniso 0.0 vmax 0.01
minimize        1.0e-15 1.0e-15 10000 100000
Loop time of 0.00853631 on 1 procs for 3 steps with 124 atoms

Minimization stats:
  Stopping criterion = linesearch alpha is zero
  Energy initial, next-to-last, final =
  Force two-norm initial, final = 101.091 11.4625
  Force max component initial, final = 97.2727 5.36885
  Final line search alpha, max atom move = 5.28127e-11 2.83543e-10
  Iterations, force evaluations = 3 55

unfix           1
min_style       fire
variable        tempstp    equal $(step)
variable        tempstp    equal 105608
variable        CellMinStep equal 105608
minimize        1.0e-15 1.0e-15 10000 100000
  Parameters for fire:
    dmax delaystep dtgrow dtshrink alpha0 alphashrink tmax tmin    integrator halfstepback
     0.1        20    1.1      0.5   0.25        0.99   10 0.02 eulerimplicit          yes
Loop time of 0.30535 on 1 procs for 2380 steps with 124 atoms

Minimization stats:
  Stopping criterion = energy tolerance
  Energy initial, next-to-last, final =
  Force two-norm initial, final = 9.35311 4.06853e-05
  Force max component initial, final = 1.70883 8.11549e-06
  Final line search alpha, max atom move = 0 0
  Iterations, force evaluations = 2380 2380

variable        AtomMinStep equal 105608
variable        temppe     equal $(pe)
variable        temppe     equal 1549.9969387713322249
variable        min_E      equal abs(1550.0915679565-1549.99693877133)
variable        prev_E     equal 1549.99693877133
next            iter
jump            SELF loop_min
min_style       cg
fix             1 all box/relax aniso 0.0 vmax 0.01
minimize        1.0e-15 1.0e-15 10000 100000
Loop time of 0.00877302 on 1 procs for 3 steps with 124 atoms

Minimization stats:
  Stopping criterion = linesearch alpha is zero
  Energy initial, next-to-last, final =
  Force two-norm initial, final = 95.4826 10.8775
  Force max component initial, final = 91.5436 5.05462
  Final line search alpha, max atom move = 5.58034e-11 2.82065e-10
  Iterations, force evaluations = 3 55

unfix           1
min_style       fire
variable        tempstp    equal $(step)
variable        tempstp    equal 107991
variable        CellMinStep equal 107991
minimize        1.0e-15 1.0e-15 10000 100000
  Parameters for fire:
    dmax delaystep dtgrow dtshrink alpha0 alphashrink tmax tmin    integrator halfstepback
     0.1        20    1.1      0.5   0.25        0.99   10 0.02 eulerimplicit          yes
Loop time of 0.302813 on 1 procs for 2364 steps with 124 atoms

Minimization stats:
  Stopping criterion = energy tolerance
  Energy initial, next-to-last, final =
  Force two-norm initial, final = 8.8896 4.86941e-05
  Force max component initial, final = 1.61938 1.03762e-05
  Final line search alpha, max atom move = 0 0
  Iterations, force evaluations = 2364 2364

variable        AtomMinStep equal 107991
variable        temppe     equal $(pe)
variable        temppe     equal 1549.9070732021934873
variable        min_E      equal abs(1549.99693877133-1549.90707320219)
variable        prev_E     equal 1549.90707320219
next            iter
jump            SELF loop_min
min_style       cg
fix             1 all box/relax aniso 0.0 vmax 0.01
minimize        1.0e-15 1.0e-15 10000 100000
Loop time of 0.00833325 on 1 procs for 3 steps with 124 atoms

Minimization stats:
  Stopping criterion = linesearch alpha is zero
  Energy initial, next-to-last, final =
  Force two-norm initial, final = 90.3857 10.2843
  Force max component initial, final = 86.3236 4.68723
  Final line search alpha, max atom move = 1.19562e-10 5.60414e-10
  Iterations, force evaluations = 3 53

unfix           1
min_style       fire
variable        tempstp    equal $(step)
variable        tempstp    equal 110358
variable        CellMinStep equal 110358
minimize        1.0e-15 1.0e-15 10000 100000
  Parameters for fire:
    dmax delaystep dtgrow dtshrink alpha0 alphashrink tmax tmin    integrator halfstepback
     0.1        20    1.1      0.5   0.25        0.99   10 0.02 eulerimplicit          yes
Loop time of 0.348354 on 1 procs for 2337 steps with 124 atoms

Minimization stats:
  Stopping criterion = energy tolerance
  Energy initial, next-to-last, final =
  Force two-norm initial, final = 8.4648 5.13011e-05
  Force max component initial, final = 1.53741 1.0515e-05
  Final line search alpha, max atom move = 0 0
  Iterations, force evaluations = 2337 2337

variable        AtomMinStep equal 110358
variable        temppe     equal $(pe)
variable        temppe     equal 1549.8124876703757309
variable        min_E      equal abs(1549.90707320219-1549.81248767038)
variable        prev_E     equal 1549.81248767038
next            iter
jump            SELF loop_min
min_style       cg
fix             1 all box/relax aniso 0.0 vmax 0.01
minimize        1.0e-15 1.0e-15 10000 100000
Loop time of 0.00875916 on 1 procs for 3 steps with 124 atoms

Minimization stats:
  Stopping criterion = linesearch alpha is zero
  Energy initial, next-to-last, final =
  Force two-norm initial, final = 85.746 9.77162
  Force max component initial, final = 81.5945 4.34434
  Final line search alpha, max atom move = 1.27572e-10 5.54216e-10
  Iterations, force evaluations = 3 53

unfix           1
min_style       fire
variable        tempstp    equal $(step)
variable        tempstp    equal 112698
variable        CellMinStep equal 112698
minimize        1.0e-15 1.0e-15 10000 100000
  Parameters for fire:
    dmax delaystep dtgrow dtshrink alpha0 alphashrink tmax tmin    integrator halfstepback
     0.1        20    1.1      0.5   0.25        0.99   10 0.02 eulerimplicit          yes
Loop time of 0.368759 on 1 procs for 2640 steps with 124 atoms

Minimization stats:
  Stopping criterion = energy tolerance
  Energy initial, next-to-last, final =
  Force two-norm initial, final = 8.07963 4.69687e-05
  Force max component initial, final = 1.47889 9.14882e-06
  Final line search alpha, max atom move = 0 0
  Iterations, force evaluations = 2640 2640

variable        AtomMinStep equal 112698
variable        temppe     equal $(pe)
variable        temppe     equal 1549.6751652622529036
variable        min_E      equal abs(1549.81248767038-1549.67516526225)
variable        prev_E     equal 1549.67516526225
next            iter
jump            SELF loop_min
min_style       cg
fix             1 all box/relax aniso 0.0 vmax 0.01
minimize        1.0e-15 1.0e-15 10000 100000
Loop time of 0.00842671 on 1 procs for 3 steps with 124 atoms

Minimization stats:
  Stopping criterion = linesearch alpha is zero
  Energy initial, next-to-last, final =
  Force two-norm initial, final = 81.7715 9.22154
  Force max component initial, final = 77.5406 4.00313
  Final line search alpha, max atom move = 1.37896e-10 5.52015e-10
  Iterations, force evaluations = 3 53

unfix           1
min_style       fire
variable        tempstp    equal $(step)
variable        tempstp    equal 115341
variable        CellMinStep equal 115341
minimize        1.0e-15 1.0e-15 10000 100000
  Parameters for fire:
    dmax delaystep dtgrow dtshrink alpha0 alphashrink tmax tmin    integrator halfstepback
     0.1        20    1.1      0.5   0.25        0.99   10 0.02 eulerimplicit          yes
Loop time of 0.294761 on 1 procs for 2283 steps with 124 atoms

Minimization stats:
  Stopping criterion = energy tolerance
  Energy initial, next-to-last, final =
  Force two-norm initial, final = 7.73688 4.3494e-05
  Force max component initial, final = 1.39812 9.01535e-06
  Final line search alpha, max atom move = 0 0
  Iterations, force evaluations = 2283 2283

variable        AtomMinStep equal 115341
variable        temppe     equal $(pe)
variable        temppe     equal 1549.6273321137975927
variable        min_E      equal abs(1549.67516526225-1549.6273321138)
variable        prev_E     equal 1549.6273321138
next            iter
jump            SELF loop_min
min_style       cg
fix             1 all box/relax aniso 0.0 vmax 0.01
minimize        1.0e-15 1.0e-15 10000 100000
Loop time of 0.00859765 on 1 procs for 2 steps with 124 atoms

Minimization stats:
  Stopping criterion = linesearch alpha is zero
  Energy initial, next-to-last, final =
  Force two-norm initial, final = 77.6124 21.01
  Force max component initial, final = 73.2576 19.0703
  Final line search alpha, max atom move = 1.44853e-11 2.76239e-10
  Iterations, force evaluations = 2 53

unfix           1
min_style       fire
variable        tempstp    equal $(step)
variable        tempstp    equal 117626
variable        CellMinStep equal 117626
minimize        1.0e-15 1.0e-15 10000 100000
  Parameters for fire:
    dmax delaystep dtgrow dtshrink alpha0 alphashrink tmax tmin    integrator halfstepback
     0.1        20    1.1      0.5   0.25        0.99   10 0.02 eulerimplicit          yes
Loop time of 0.283878 on 1 procs for 2193 steps with 124 atoms

Minimization stats:
  Stopping criterion = energy tolerance
  Energy initial, next-to-last, final =
  Force two-norm initial, final = 6.87863 3.83555e-05
  Force max component initial, final = 1.29583 8.52186e-06
  Final line search alpha, max atom move = 0 0
  Iterations, force evaluations = 2193 2193

variable        AtomMinStep equal 117626
variable        temppe     equal $(pe)
variable        temppe     equal 1549.5804281391453969
variable        min_E      equal abs(1549.6273321138-1549.58042813915)
variable        prev_E     equal 1549.58042813915
next            iter
jump            SELF loop_min
min_style       cg
fix             1 all box/relax aniso 0.0 vmax 0.01
minimize        1.0e-15 1.0e-15 10000 100000
Loop time of 0.00828178 on 1 procs for 1 steps with 124 atoms

Minimization stats:
  Stopping criterion = linesearch alpha is zero
  Energy initial, next-to-last, final =
  Force two-norm initial, final = 71.866 71.866
  Force max component initial, final = 66.3453 66.3453
  Final line search alpha, max atom move = 2.246e-12 1.49012e-10
  Iterations, force evaluations = 1 53

unfix           1
min_style       fire
variable        tempstp    equal $(step)
variable        tempstp    equal 119820
variable        CellMinStep equal 119820
minimize        1.0e-15 1.0e-15 10000 100000
  Parameters for fire:
    dmax delaystep dtgrow dtshrink alpha0 alphashrink tmax tmin    integrator halfstepback
     0.1        20    1.1      0.5   0.25        0.99   10 0.02 eulerimplicit          yes
Loop time of 0.0114375 on 1 procs for 83 steps with 124 atoms

Minimization stats:
  Stopping criterion = energy tolerance
  Energy initial, next-to-last, final =
  Force two-norm initial, final = 3.83555e-05 3.06061e-05
  Force max component initial, final = 8.52186e-06 6.80049e-06
  Final line search alpha, max atom move = 0 0
  Iterations, force evaluations = 83 83

variable        AtomMinStep equal 119820
variable        temppe     equal $(pe)
variable        temppe     equal 1549.5804281389816879
variable        min_E      equal abs(1549.58042813915-1549.58042813898)
jump SELF break_min
undump          NiPyC2_relax_sc211_meta_functionalized_CH-S_xyzmov

# Dump last snapshot for restart
variable curr_lx equal lx
variable curr_ly equal ly
variable curr_lz equal lz
change_box all x final 0 13.8738059177288 y final 0 10.2707579139983 z final 0 10.8095479416144
  triclinic box = (0 1.12632 -0.267634) to (13.8738 11.3971 10.5419) with tilt (0 -0.239451 0)
  triclinic box = (0 0 -0.267634) to (13.8738 10.2708 10.5419) with tilt (0 -0.239451 0)
  triclinic box = (0 0 0) to (13.8738 10.2708 10.8095) with tilt (0 -0.239451 0)

reset_timestep 0
dump            NiPyC2_relax_sc211_meta_functionalized_CH-S_restart all atom 1 NiPyC2_relax_sc211_meta_functionalized_CH-S_restart.lammpstrj
dump_modify     NiPyC2_relax_sc211_meta_functionalized_CH-S_restart scale no sort id
run 0
Loop time of 7.99017e-07 on 1 procs for 0 steps with 124 atoms

undump          NiPyC2_relax_sc211_meta_functionalized_CH-S_restart
